data_image0
_chemical_formula_structural       Ti5352
_chemical_formula_sum              "Ti5352"
_cell_length_a       158.838
_cell_length_b       132.681
_cell_length_c       109.851
_cell_angle_alpha    90
_cell_angle_beta     90
_cell_angle_gamma    2.44057

_space_group_name_H-M_alt    "P 1"
_space_group_IT_number       1

loop_
  _space_group_symop_operation_xyz
  'x, y, z'

loop_
  _atom_site_type_symbol
  _atom_site_label
  _atom_site_symmetry_multiplicity
  _atom_site_fract_x
  _atom_site_fract_y
  _atom_site_fract_z
  _atom_site_occupancy
  Ti  Ti1       1.0  0.00000  0.00000  0.04552  1.0000
  Ti  Ti2       1.0  0.25610  0.16667  0.04552  1.0000
  Ti  Ti3       1.0  0.50000  0.22540  0.04756  1.0000
  Ti  Ti4       1.0  0.24390  0.05873  0.04756  1.0000
  Ti  Ti5       1.0  0.48780  0.11746  0.04960  1.0000
  Ti  Ti6       1.0  0.23171  0.28413  0.04960  1.0000
  Ti  Ti7       1.0  0.47561  0.00952  0.05164  1.0000
  Ti  Ti8       1.0  0.21951  0.17619  0.05164  1.0000
  Ti  Ti9       1.0  0.46341  0.23492  0.05369  1.0000
  Ti  Ti10      1.0  0.20732  0.06825  0.05369  1.0000
  Ti  Ti11      1.0  0.45122  0.12698  0.05573  1.0000
  Ti  Ti12      1.0  0.19512  0.29365  0.05573  1.0000
  Ti  Ti13      1.0  0.43902  0.01905  0.05777  1.0000
  Ti  Ti14      1.0  0.18293  0.18571  0.05777  1.0000
  Ti  Ti15      1.0  0.42683  0.24444  0.05981  1.0000
  Ti  Ti16      1.0  0.17073  0.07778  0.05981  1.0000
  Ti  Ti17      1.0  0.41463  0.13651  0.06186  1.0000
  Ti  Ti18      1.0  0.15854  0.30317  0.06186  1.0000
  Ti  Ti19      1.0  0.40244  0.02857  0.06390  1.0000
  Ti  Ti20      1.0  0.14634  0.19524  0.06390  1.0000
  Ti  Ti21      1.0  0.39024  0.25397  0.06594  1.0000
  Ti  Ti22      1.0  0.13415  0.08730  0.06594  1.0000
  Ti  Ti23      1.0  0.37805  0.14603  0.06799  1.0000
  Ti  Ti24      1.0  0.12195  0.31270  0.06799  1.0000
  Ti  Ti25      1.0  0.36585  0.03810  0.07003  1.0000
  Ti  Ti26      1.0  0.10976  0.20476  0.07003  1.0000
  Ti  Ti27      1.0  0.35366  0.26349  0.07207  1.0000
  Ti  Ti28      1.0  0.09756  0.09683  0.07207  1.0000
  Ti  Ti29      1.0  0.34146  0.15556  0.07411  1.0000
  Ti  Ti30      1.0  0.08537  0.32222  0.07411  1.0000
  Ti  Ti31      1.0  0.32927  0.04762  0.07616  1.0000
  Ti  Ti32      1.0  0.07317  0.21429  0.07616  1.0000
  Ti  Ti33      1.0  0.31707  0.27302  0.07820  1.0000
  Ti  Ti34      1.0  0.06098  0.10635  0.07820  1.0000
  Ti  Ti35      1.0  0.30488  0.16508  0.08024  1.0000
  Ti  Ti36      1.0  0.04878  0.33175  0.08024  1.0000
  Ti  Ti37      1.0  0.29268  0.05714  0.08228  1.0000
  Ti  Ti38      1.0  0.03659  0.22381  0.08228  1.0000
  Ti  Ti39      1.0  0.28049  0.28254  0.08433  1.0000
  Ti  Ti40      1.0  0.02439  0.11587  0.08433  1.0000
  Ti  Ti41      1.0  0.26829  0.17460  0.08637  1.0000
  Ti  Ti42      1.0  0.01220  0.00794  0.08637  1.0000
  Ti  Ti43      1.0  0.25610  0.06667  0.08841  1.0000
  Ti  Ti44      1.0  0.00000  0.23333  0.08841  1.0000
  Ti  Ti45      1.0  0.24390  0.29206  0.09045  1.0000
  Ti  Ti46      1.0  0.50000  0.12540  0.09045  1.0000
  Ti  Ti47      1.0  0.23171  0.18413  0.09250  1.0000
  Ti  Ti48      1.0  0.48780  0.01746  0.09250  1.0000
  Ti  Ti49      1.0  0.21951  0.07619  0.09454  1.0000
  Ti  Ti50      1.0  0.47561  0.24286  0.09454  1.0000
  Ti  Ti51      1.0  0.20732  0.30159  0.09658  1.0000
  Ti  Ti52      1.0  0.46341  0.13492  0.09658  1.0000
  Ti  Ti53      1.0  0.19512  0.19365  0.09862  1.0000
  Ti  Ti54      1.0  0.45122  0.02698  0.09862  1.0000
  Ti  Ti55      1.0  0.18293  0.08571  0.10067  1.0000
  Ti  Ti56      1.0  0.43902  0.25238  0.10067  1.0000
  Ti  Ti57      1.0  0.17073  0.31111  0.10271  1.0000
  Ti  Ti58      1.0  0.42683  0.14444  0.10271  1.0000
  Ti  Ti59      1.0  0.15854  0.20317  0.10475  1.0000
  Ti  Ti60      1.0  0.41463  0.03651  0.10475  1.0000
  Ti  Ti61      1.0  0.14634  0.09524  0.10679  1.0000
  Ti  Ti62      1.0  0.40244  0.26190  0.10679  1.0000
  Ti  Ti63      1.0  0.13415  0.32063  0.10884  1.0000
  Ti  Ti64      1.0  0.39024  0.15397  0.10884  1.0000
  Ti  Ti65      1.0  0.12195  0.21270  0.11088  1.0000
  Ti  Ti66      1.0  0.37805  0.04603  0.11088  1.0000
  Ti  Ti67      1.0  0.10976  0.10476  0.11292  1.0000
  Ti  Ti68      1.0  0.36585  0.27143  0.11292  1.0000
  Ti  Ti69      1.0  0.09756  0.33016  0.11497  1.0000
  Ti  Ti70      1.0  0.35366  0.16349  0.11497  1.0000
  Ti  Ti71      1.0  0.08537  0.22222  0.11701  1.0000
  Ti  Ti72      1.0  0.34146  0.05556  0.11701  1.0000
  Ti  Ti73      1.0  0.07317  0.11429  0.11905  1.0000
  Ti  Ti74      1.0  0.32927  0.28095  0.11905  1.0000
  Ti  Ti75      1.0  0.06098  0.00635  0.12109  1.0000
  Ti  Ti76      1.0  0.31707  0.17302  0.12109  1.0000
  Ti  Ti77      1.0  0.04878  0.23175  0.12314  1.0000
  Ti  Ti78      1.0  0.30488  0.06508  0.12314  1.0000
  Ti  Ti79      1.0  0.03659  0.12381  0.12518  1.0000
  Ti  Ti80      1.0  0.29268  0.29048  0.12518  1.0000
  Ti  Ti81      1.0  0.02439  0.01587  0.12722  1.0000
  Ti  Ti82      1.0  0.28049  0.18254  0.12722  1.0000
  Ti  Ti83      1.0  0.01220  0.24127  0.12926  1.0000
  Ti  Ti84      1.0  0.26829  0.07460  0.12926  1.0000
  Ti  Ti85      1.0  0.00000  0.13333  0.13131  1.0000
  Ti  Ti86      1.0  0.25610  0.30000  0.13131  1.0000
  Ti  Ti87      1.0  0.50000  0.02540  0.13335  1.0000
  Ti  Ti88      1.0  0.24390  0.19206  0.13335  1.0000
  Ti  Ti89      1.0  0.48780  0.25079  0.13539  1.0000
  Ti  Ti90      1.0  0.23171  0.08413  0.13539  1.0000
  Ti  Ti91      1.0  0.47561  0.14286  0.13743  1.0000
  Ti  Ti92      1.0  0.21951  0.30952  0.13743  1.0000
  Ti  Ti93      1.0  0.46341  0.03492  0.13948  1.0000
  Ti  Ti94      1.0  0.20732  0.20159  0.13948  1.0000
  Ti  Ti95      1.0  0.45122  0.26032  0.14152  1.0000
  Ti  Ti96      1.0  0.19512  0.09365  0.14152  1.0000
  Ti  Ti97      1.0  0.43902  0.15238  0.14356  1.0000
  Ti  Ti98      1.0  0.18293  0.31905  0.14356  1.0000
  Ti  Ti99      1.0  0.42683  0.04444  0.14560  1.0000
  Ti  Ti100     1.0  0.17073  0.21111  0.14560  1.0000
  Ti  Ti101     1.0  0.41463  0.26984  0.14765  1.0000
  Ti  Ti102     1.0  0.15854  0.10317  0.14765  1.0000
  Ti  Ti103     1.0  0.40244  0.16190  0.14969  1.0000
  Ti  Ti104     1.0  0.14634  0.32857  0.14969  1.0000
  Ti  Ti105     1.0  0.39024  0.05397  0.15173  1.0000
  Ti  Ti106     1.0  0.13415  0.22063  0.15173  1.0000
  Ti  Ti107     1.0  0.37805  0.27937  0.15378  1.0000
  Ti  Ti108     1.0  0.12195  0.11270  0.15378  1.0000
  Ti  Ti109     1.0  0.36585  0.17143  0.15582  1.0000
  Ti  Ti110     1.0  0.10976  0.00476  0.15582  1.0000
  Ti  Ti111     1.0  0.35366  0.06349  0.15786  1.0000
  Ti  Ti112     1.0  0.09756  0.23016  0.15786  1.0000
  Ti  Ti113     1.0  0.34146  0.28889  0.15990  1.0000
  Ti  Ti114     1.0  0.08537  0.12222  0.15990  1.0000
  Ti  Ti115     1.0  0.32927  0.18095  0.16195  1.0000
  Ti  Ti116     1.0  0.07317  0.01429  0.16195  1.0000
  Ti  Ti117     1.0  0.31707  0.07302  0.16399  1.0000
  Ti  Ti118     1.0  0.06098  0.23968  0.16399  1.0000
  Ti  Ti119     1.0  0.30488  0.29841  0.16603  1.0000
  Ti  Ti120     1.0  0.04878  0.13175  0.16603  1.0000
  Ti  Ti121     1.0  0.29268  0.19048  0.16807  1.0000
  Ti  Ti122     1.0  0.03659  0.02381  0.16807  1.0000
  Ti  Ti123     1.0  0.28049  0.08254  0.17012  1.0000
  Ti  Ti124     1.0  0.02439  0.24921  0.17012  1.0000
  Ti  Ti125     1.0  0.26829  0.30794  0.17216  1.0000
  Ti  Ti126     1.0  0.01220  0.14127  0.17216  1.0000
  Ti  Ti127     1.0  0.25610  0.20000  0.17420  1.0000
  Ti  Ti128     1.0  0.00000  0.03333  0.17420  1.0000
  Ti  Ti129     1.0  0.24390  0.09206  0.17624  1.0000
  Ti  Ti130     1.0  0.50000  0.25873  0.17624  1.0000
  Ti  Ti131     1.0  0.23171  0.31746  0.17829  1.0000
  Ti  Ti132     1.0  0.48780  0.15079  0.17829  1.0000
  Ti  Ti133     1.0  0.21951  0.20952  0.18033  1.0000
  Ti  Ti134     1.0  0.47561  0.04286  0.18033  1.0000
  Ti  Ti135     1.0  0.20732  0.10159  0.18237  1.0000
  Ti  Ti136     1.0  0.46341  0.26825  0.18237  1.0000
  Ti  Ti137     1.0  0.19512  0.32698  0.18441  1.0000
  Ti  Ti138     1.0  0.45122  0.16032  0.18441  1.0000
  Ti  Ti139     1.0  0.18293  0.21905  0.18646  1.0000
  Ti  Ti140     1.0  0.43902  0.05238  0.18646  1.0000
  Ti  Ti141     1.0  0.17073  0.11111  0.18850  1.0000
  Ti  Ti142     1.0  0.42683  0.27778  0.18850  1.0000
  Ti  Ti143     1.0  0.15854  0.00317  0.19054  1.0000
  Ti  Ti144     1.0  0.41463  0.16984  0.19054  1.0000
  Ti  Ti145     1.0  0.14634  0.22857  0.19259  1.0000
  Ti  Ti146     1.0  0.40244  0.06190  0.19259  1.0000
  Ti  Ti147     1.0  0.13415  0.12063  0.19463  1.0000
  Ti  Ti148     1.0  0.39024  0.28730  0.19463  1.0000
  Ti  Ti149     1.0  0.12195  0.01270  0.19667  1.0000
  Ti  Ti150     1.0  0.37805  0.17937  0.19667  1.0000
  Ti  Ti151     1.0  0.10976  0.23810  0.19871  1.0000
  Ti  Ti152     1.0  0.36585  0.07143  0.19871  1.0000
  Ti  Ti153     1.0  0.09756  0.13016  0.20076  1.0000
  Ti  Ti154     1.0  0.35366  0.29683  0.20076  1.0000
  Ti  Ti155     1.0  0.08537  0.02222  0.20280  1.0000
  Ti  Ti156     1.0  0.34146  0.18889  0.20280  1.0000
  Ti  Ti157     1.0  0.07317  0.24762  0.20484  1.0000
  Ti  Ti158     1.0  0.32927  0.08095  0.20484  1.0000
  Ti  Ti159     1.0  0.06098  0.13968  0.20688  1.0000
  Ti  Ti160     1.0  0.31707  0.30635  0.20688  1.0000
  Ti  Ti161     1.0  0.04878  0.03175  0.20893  1.0000
  Ti  Ti162     1.0  0.30488  0.19841  0.20893  1.0000
  Ti  Ti163     1.0  0.03659  0.25714  0.21097  1.0000
  Ti  Ti164     1.0  0.29268  0.09048  0.21097  1.0000
  Ti  Ti165     1.0  0.02439  0.14921  0.21301  1.0000
  Ti  Ti166     1.0  0.28049  0.31587  0.21301  1.0000
  Ti  Ti167     1.0  0.01220  0.04127  0.21505  1.0000
  Ti  Ti168     1.0  0.26829  0.20794  0.21505  1.0000
  Ti  Ti169     1.0  0.00000  0.26667  0.21710  1.0000
  Ti  Ti170     1.0  0.25610  0.10000  0.21710  1.0000
  Ti  Ti171     1.0  0.50000  0.15873  0.21914  1.0000
  Ti  Ti172     1.0  0.24390  0.32540  0.21914  1.0000
  Ti  Ti173     1.0  0.48780  0.05079  0.22118  1.0000
  Ti  Ti174     1.0  0.23171  0.21746  0.22118  1.0000
  Ti  Ti175     1.0  0.47561  0.27619  0.22322  1.0000
  Ti  Ti176     1.0  0.21951  0.10952  0.22322  1.0000
  Ti  Ti177     1.0  0.46341  0.16825  0.22527  1.0000
  Ti  Ti178     1.0  0.20732  0.00159  0.22527  1.0000
  Ti  Ti179     1.0  0.45122  0.06032  0.22731  1.0000
  Ti  Ti180     1.0  0.19512  0.22698  0.22731  1.0000
  Ti  Ti181     1.0  0.43902  0.28571  0.22935  1.0000
  Ti  Ti182     1.0  0.18293  0.11905  0.22935  1.0000
  Ti  Ti183     1.0  0.42683  0.17778  0.23139  1.0000
  Ti  Ti184     1.0  0.17073  0.01111  0.23139  1.0000
  Ti  Ti185     1.0  0.41463  0.06984  0.23344  1.0000
  Ti  Ti186     1.0  0.15854  0.23651  0.23344  1.0000
  Ti  Ti187     1.0  0.40244  0.29524  0.23548  1.0000
  Ti  Ti188     1.0  0.14634  0.12857  0.23548  1.0000
  Ti  Ti189     1.0  0.39024  0.18730  0.23752  1.0000
  Ti  Ti190     1.0  0.13415  0.02063  0.23752  1.0000
  Ti  Ti191     1.0  0.37805  0.07937  0.23957  1.0000
  Ti  Ti192     1.0  0.12195  0.24603  0.23957  1.0000
  Ti  Ti193     1.0  0.36585  0.30476  0.24161  1.0000
  Ti  Ti194     1.0  0.10976  0.13810  0.24161  1.0000
  Ti  Ti195     1.0  0.35366  0.19683  0.24365  1.0000
  Ti  Ti196     1.0  0.09756  0.03016  0.24365  1.0000
  Ti  Ti197     1.0  0.34146  0.08889  0.24569  1.0000
  Ti  Ti198     1.0  0.08537  0.25556  0.24569  1.0000
  Ti  Ti199     1.0  0.32927  0.31429  0.24774  1.0000
  Ti  Ti200     1.0  0.07317  0.14762  0.24774  1.0000
  Ti  Ti201     1.0  0.31707  0.20635  0.24978  1.0000
  Ti  Ti202     1.0  0.06098  0.03968  0.24978  1.0000
  Ti  Ti203     1.0  0.30488  0.09841  0.25182  1.0000
  Ti  Ti204     1.0  0.04878  0.26508  0.25182  1.0000
  Ti  Ti205     1.0  0.29268  0.32381  0.25386  1.0000
  Ti  Ti206     1.0  0.03659  0.15714  0.25386  1.0000
  Ti  Ti207     1.0  0.28049  0.21587  0.25591  1.0000
  Ti  Ti208     1.0  0.02439  0.04921  0.25591  1.0000
  Ti  Ti209     1.0  0.26829  0.10794  0.25795  1.0000
  Ti  Ti210     1.0  0.01220  0.27460  0.25795  1.0000
  Ti  Ti211     1.0  0.25610  0.33333  0.25999  1.0000
  Ti  Ti212     1.0  0.00000  0.16667  0.25999  1.0000
  Ti  Ti213     1.0  0.24390  0.22540  0.26203  1.0000
  Ti  Ti214     1.0  0.50000  0.05873  0.26203  1.0000
  Ti  Ti215     1.0  0.23171  0.11746  0.26408  1.0000
  Ti  Ti216     1.0  0.48780  0.28413  0.26408  1.0000
  Ti  Ti217     1.0  0.21951  0.00952  0.26612  1.0000
  Ti  Ti218     1.0  0.47561  0.17619  0.26612  1.0000
  Ti  Ti219     1.0  0.20732  0.23492  0.26816  1.0000
  Ti  Ti220     1.0  0.46341  0.06825  0.26816  1.0000
  Ti  Ti221     1.0  0.19512  0.12698  0.27020  1.0000
  Ti  Ti222     1.0  0.45122  0.29365  0.27020  1.0000
  Ti  Ti223     1.0  0.18293  0.01905  0.27225  1.0000
  Ti  Ti224     1.0  0.43902  0.18571  0.27225  1.0000
  Ti  Ti225     1.0  0.17073  0.24444  0.27429  1.0000
  Ti  Ti226     1.0  0.42683  0.07778  0.27429  1.0000
  Ti  Ti227     1.0  0.15854  0.13651  0.27633  1.0000
  Ti  Ti228     1.0  0.41463  0.30317  0.27633  1.0000
  Ti  Ti229     1.0  0.14634  0.02857  0.27838  1.0000
  Ti  Ti230     1.0  0.40244  0.19524  0.27838  1.0000
  Ti  Ti231     1.0  0.13415  0.25397  0.28042  1.0000
  Ti  Ti232     1.0  0.39024  0.08730  0.28042  1.0000
  Ti  Ti233     1.0  0.12195  0.14603  0.28246  1.0000
  Ti  Ti234     1.0  0.37805  0.31270  0.28246  1.0000
  Ti  Ti235     1.0  0.10976  0.03810  0.28450  1.0000
  Ti  Ti236     1.0  0.36585  0.20476  0.28450  1.0000
  Ti  Ti237     1.0  0.09756  0.26349  0.28655  1.0000
  Ti  Ti238     1.0  0.35366  0.09683  0.28655  1.0000
  Ti  Ti239     1.0  0.08537  0.15556  0.28859  1.0000
  Ti  Ti240     1.0  0.34146  0.32222  0.28859  1.0000
  Ti  Ti241     1.0  0.07317  0.04762  0.29063  1.0000
  Ti  Ti242     1.0  0.32927  0.21429  0.29063  1.0000
  Ti  Ti243     1.0  0.06098  0.27302  0.29267  1.0000
  Ti  Ti244     1.0  0.31707  0.10635  0.29267  1.0000
  Ti  Ti245     1.0  0.04878  0.16508  0.29472  1.0000
  Ti  Ti246     1.0  0.30488  0.33175  0.29472  1.0000
  Ti  Ti247     1.0  0.03659  0.05714  0.29676  1.0000
  Ti  Ti248     1.0  0.29268  0.22381  0.29676  1.0000
  Ti  Ti249     1.0  0.02439  0.28254  0.29880  1.0000
  Ti  Ti250     1.0  0.28049  0.11587  0.29880  1.0000
  Ti  Ti251     1.0  0.01220  0.17460  0.30084  1.0000
  Ti  Ti252     1.0  0.26829  0.00794  0.30084  1.0000
  Ti  Ti253     1.0  0.00000  0.06667  0.30289  1.0000
  Ti  Ti254     1.0  0.25610  0.23333  0.30289  1.0000
  Ti  Ti255     1.0  0.50000  0.29206  0.30493  1.0000
  Ti  Ti256     1.0  0.24390  0.12540  0.30493  1.0000
  Ti  Ti257     1.0  0.48780  0.18413  0.30697  1.0000
  Ti  Ti258     1.0  0.23171  0.01746  0.30697  1.0000
  Ti  Ti259     1.0  0.47561  0.07619  0.30901  1.0000
  Ti  Ti260     1.0  0.21951  0.24286  0.30901  1.0000
  Ti  Ti261     1.0  0.46341  0.30159  0.31106  1.0000
  Ti  Ti262     1.0  0.20732  0.13492  0.31106  1.0000
  Ti  Ti263     1.0  0.45122  0.19365  0.31310  1.0000
  Ti  Ti264     1.0  0.19512  0.02698  0.31310  1.0000
  Ti  Ti265     1.0  0.43902  0.08571  0.31514  1.0000
  Ti  Ti266     1.0  0.18293  0.25238  0.31514  1.0000
  Ti  Ti267     1.0  0.42683  0.31111  0.31719  1.0000
  Ti  Ti268     1.0  0.17073  0.14444  0.31719  1.0000
  Ti  Ti269     1.0  0.41463  0.20317  0.31923  1.0000
  Ti  Ti270     1.0  0.15854  0.03651  0.31923  1.0000
  Ti  Ti271     1.0  0.40244  0.09524  0.32127  1.0000
  Ti  Ti272     1.0  0.14634  0.26190  0.32127  1.0000
  Ti  Ti273     1.0  0.39024  0.32063  0.32331  1.0000
  Ti  Ti274     1.0  0.13415  0.15397  0.32331  1.0000
  Ti  Ti275     1.0  0.37805  0.21270  0.32536  1.0000
  Ti  Ti276     1.0  0.12195  0.04603  0.32536  1.0000
  Ti  Ti277     1.0  0.36585  0.10476  0.32740  1.0000
  Ti  Ti278     1.0  0.10976  0.27143  0.32740  1.0000
  Ti  Ti279     1.0  0.35366  0.33016  0.32944  1.0000
  Ti  Ti280     1.0  0.09756  0.16349  0.32944  1.0000
  Ti  Ti281     1.0  0.34146  0.22222  0.33148  1.0000
  Ti  Ti282     1.0  0.08537  0.05556  0.33148  1.0000
  Ti  Ti283     1.0  0.32927  0.11429  0.33353  1.0000
  Ti  Ti284     1.0  0.07317  0.28095  0.33353  1.0000
  Ti  Ti285     1.0  0.31707  0.00635  0.33557  1.0000
  Ti  Ti286     1.0  0.06098  0.17302  0.33557  1.0000
  Ti  Ti287     1.0  0.30488  0.23175  0.33761  1.0000
  Ti  Ti288     1.0  0.04878  0.06508  0.33761  1.0000
  Ti  Ti289     1.0  0.29268  0.12381  0.33965  1.0000
  Ti  Ti290     1.0  0.03659  0.29048  0.33965  1.0000
  Ti  Ti291     1.0  0.28049  0.01587  0.34170  1.0000
  Ti  Ti292     1.0  0.02439  0.18254  0.34170  1.0000
  Ti  Ti293     1.0  0.26829  0.24127  0.34374  1.0000
  Ti  Ti294     1.0  0.01220  0.07460  0.34374  1.0000
  Ti  Ti295     1.0  0.25610  0.13333  0.34578  1.0000
  Ti  Ti296     1.0  0.00000  0.30000  0.34578  1.0000
  Ti  Ti297     1.0  0.24390  0.02540  0.34782  1.0000
  Ti  Ti298     1.0  0.50000  0.19206  0.34782  1.0000
  Ti  Ti299     1.0  0.23171  0.25079  0.34987  1.0000
  Ti  Ti300     1.0  0.48780  0.08413  0.34987  1.0000
  Ti  Ti301     1.0  0.21951  0.14286  0.35191  1.0000
  Ti  Ti302     1.0  0.47561  0.30952  0.35191  1.0000
  Ti  Ti303     1.0  0.20732  0.03492  0.35395  1.0000
  Ti  Ti304     1.0  0.46341  0.20159  0.35395  1.0000
  Ti  Ti305     1.0  0.19512  0.26032  0.35600  1.0000
  Ti  Ti306     1.0  0.45122  0.09365  0.35600  1.0000
  Ti  Ti307     1.0  0.18293  0.15238  0.35804  1.0000
  Ti  Ti308     1.0  0.43902  0.31905  0.35804  1.0000
  Ti  Ti309     1.0  0.17073  0.04444  0.36008  1.0000
  Ti  Ti310     1.0  0.42683  0.21111  0.36008  1.0000
  Ti  Ti311     1.0  0.15854  0.26984  0.36212  1.0000
  Ti  Ti312     1.0  0.41463  0.10317  0.36212  1.0000
  Ti  Ti313     1.0  0.14634  0.16190  0.36417  1.0000
  Ti  Ti314     1.0  0.40244  0.32857  0.36417  1.0000
  Ti  Ti315     1.0  0.13415  0.05397  0.36621  1.0000
  Ti  Ti316     1.0  0.39024  0.22063  0.36621  1.0000
  Ti  Ti317     1.0  0.12195  0.27937  0.36825  1.0000
  Ti  Ti318     1.0  0.37805  0.11270  0.36825  1.0000
  Ti  Ti319     1.0  0.10976  0.17143  0.37029  1.0000
  Ti  Ti320     1.0  0.36585  0.00476  0.37029  1.0000
  Ti  Ti321     1.0  0.09756  0.06349  0.37234  1.0000
  Ti  Ti322     1.0  0.35366  0.23016  0.37234  1.0000
  Ti  Ti323     1.0  0.08537  0.28889  0.37438  1.0000
  Ti  Ti324     1.0  0.34146  0.12222  0.37438  1.0000
  Ti  Ti325     1.0  0.07317  0.18095  0.37642  1.0000
  Ti  Ti326     1.0  0.32927  0.01429  0.37642  1.0000
  Ti  Ti327     1.0  0.06098  0.07302  0.37846  1.0000
  Ti  Ti328     1.0  0.31707  0.23968  0.37846  1.0000
  Ti  Ti329     1.0  0.04878  0.29841  0.38051  1.0000
  Ti  Ti330     1.0  0.30488  0.13175  0.38051  1.0000
  Ti  Ti331     1.0  0.03659  0.19048  0.38255  1.0000
  Ti  Ti332     1.0  0.29268  0.02381  0.38255  1.0000
  Ti  Ti333     1.0  0.02439  0.08254  0.38459  1.0000
  Ti  Ti334     1.0  0.28049  0.24921  0.38459  1.0000
  Ti  Ti335     1.0  0.01220  0.30794  0.38663  1.0000
  Ti  Ti336     1.0  0.26829  0.14127  0.38663  1.0000
  Ti  Ti337     1.0  0.00000  0.20000  0.38868  1.0000
  Ti  Ti338     1.0  0.25610  0.03333  0.38868  1.0000
  Ti  Ti339     1.0  0.50000  0.09206  0.39072  1.0000
  Ti  Ti340     1.0  0.24390  0.25873  0.39072  1.0000
  Ti  Ti341     1.0  0.48780  0.31746  0.39276  1.0000
  Ti  Ti342     1.0  0.23171  0.15079  0.39276  1.0000
  Ti  Ti343     1.0  0.47561  0.20952  0.39480  1.0000
  Ti  Ti344     1.0  0.21951  0.04286  0.39480  1.0000
  Ti  Ti345     1.0  0.46341  0.10159  0.39685  1.0000
  Ti  Ti346     1.0  0.20732  0.26825  0.39685  1.0000
  Ti  Ti347     1.0  0.45122  0.32698  0.39889  1.0000
  Ti  Ti348     1.0  0.19512  0.16032  0.39889  1.0000
  Ti  Ti349     1.0  0.43902  0.21905  0.40093  1.0000
  Ti  Ti350     1.0  0.18293  0.05238  0.40093  1.0000
  Ti  Ti351     1.0  0.42683  0.11111  0.40298  1.0000
  Ti  Ti352     1.0  0.17073  0.27778  0.40298  1.0000
  Ti  Ti353     1.0  0.41463  0.00317  0.40502  1.0000
  Ti  Ti354     1.0  0.15854  0.16984  0.40502  1.0000
  Ti  Ti355     1.0  0.40244  0.22857  0.40706  1.0000
  Ti  Ti356     1.0  0.14634  0.06190  0.40706  1.0000
  Ti  Ti357     1.0  0.39024  0.12063  0.40910  1.0000
  Ti  Ti358     1.0  0.13415  0.28730  0.40910  1.0000
  Ti  Ti359     1.0  0.37805  0.01270  0.41115  1.0000
  Ti  Ti360     1.0  0.12195  0.17937  0.41115  1.0000
  Ti  Ti361     1.0  0.36585  0.23810  0.41319  1.0000
  Ti  Ti362     1.0  0.10976  0.07143  0.41319  1.0000
  Ti  Ti363     1.0  0.35366  0.13016  0.41523  1.0000
  Ti  Ti364     1.0  0.09756  0.29683  0.41523  1.0000
  Ti  Ti365     1.0  0.34146  0.02222  0.41727  1.0000
  Ti  Ti366     1.0  0.08537  0.18889  0.41727  1.0000
  Ti  Ti367     1.0  0.32927  0.24762  0.41932  1.0000
  Ti  Ti368     1.0  0.07317  0.08095  0.41932  1.0000
  Ti  Ti369     1.0  0.31707  0.13968  0.42136  1.0000
  Ti  Ti370     1.0  0.06098  0.30635  0.42136  1.0000
  Ti  Ti371     1.0  0.30488  0.03175  0.42340  1.0000
  Ti  Ti372     1.0  0.04878  0.19841  0.42340  1.0000
  Ti  Ti373     1.0  0.29268  0.25714  0.42544  1.0000
  Ti  Ti374     1.0  0.03659  0.09048  0.42544  1.0000
  Ti  Ti375     1.0  0.28049  0.14921  0.42749  1.0000
  Ti  Ti376     1.0  0.02439  0.31587  0.42749  1.0000
  Ti  Ti377     1.0  0.26829  0.04127  0.42953  1.0000
  Ti  Ti378     1.0  0.01220  0.20794  0.42953  1.0000
  Ti  Ti379     1.0  0.25610  0.26667  0.43157  1.0000
  Ti  Ti380     1.0  0.00000  0.10000  0.43157  1.0000
  Ti  Ti381     1.0  0.24390  0.15873  0.43361  1.0000
  Ti  Ti382     1.0  0.50000  0.32540  0.43361  1.0000
  Ti  Ti383     1.0  0.23171  0.05079  0.43566  1.0000
  Ti  Ti384     1.0  0.48780  0.21746  0.43566  1.0000
  Ti  Ti385     1.0  0.21951  0.27619  0.43770  1.0000
  Ti  Ti386     1.0  0.47561  0.10952  0.43770  1.0000
  Ti  Ti387     1.0  0.20732  0.16825  0.43974  1.0000
  Ti  Ti388     1.0  0.46341  0.00159  0.43974  1.0000
  Ti  Ti389     1.0  0.19512  0.06032  0.44179  1.0000
  Ti  Ti390     1.0  0.45122  0.22698  0.44179  1.0000
  Ti  Ti391     1.0  0.18293  0.28571  0.44383  1.0000
  Ti  Ti392     1.0  0.43902  0.11905  0.44383  1.0000
  Ti  Ti393     1.0  0.17073  0.17778  0.44587  1.0000
  Ti  Ti394     1.0  0.42683  0.01111  0.44587  1.0000
  Ti  Ti395     1.0  0.15854  0.06984  0.44791  1.0000
  Ti  Ti396     1.0  0.41463  0.23651  0.44791  1.0000
  Ti  Ti397     1.0  0.14634  0.29524  0.44996  1.0000
  Ti  Ti398     1.0  0.40244  0.12857  0.44996  1.0000
  Ti  Ti399     1.0  0.13415  0.18730  0.45200  1.0000
  Ti  Ti400     1.0  0.39024  0.02063  0.45200  1.0000
  Ti  Ti401     1.0  0.12195  0.07937  0.45404  1.0000
  Ti  Ti402     1.0  0.37805  0.24603  0.45404  1.0000
  Ti  Ti403     1.0  0.10976  0.30476  0.45608  1.0000
  Ti  Ti404     1.0  0.36585  0.13810  0.45608  1.0000
  Ti  Ti405     1.0  0.09756  0.19683  0.45813  1.0000
  Ti  Ti406     1.0  0.35366  0.03016  0.45813  1.0000
  Ti  Ti407     1.0  0.08537  0.08889  0.46017  1.0000
  Ti  Ti408     1.0  0.34146  0.25556  0.46017  1.0000
  Ti  Ti409     1.0  0.07317  0.31429  0.46221  1.0000
  Ti  Ti410     1.0  0.32927  0.14762  0.46221  1.0000
  Ti  Ti411     1.0  0.06098  0.20635  0.46425  1.0000
  Ti  Ti412     1.0  0.31707  0.03968  0.46425  1.0000
  Ti  Ti413     1.0  0.04878  0.09841  0.46630  1.0000
  Ti  Ti414     1.0  0.30488  0.26508  0.46630  1.0000
  Ti  Ti415     1.0  0.03659  0.32381  0.46834  1.0000
  Ti  Ti416     1.0  0.29268  0.15714  0.46834  1.0000
  Ti  Ti417     1.0  0.02439  0.21587  0.47038  1.0000
  Ti  Ti418     1.0  0.28049  0.04921  0.47038  1.0000
  Ti  Ti419     1.0  0.01220  0.10794  0.47242  1.0000
  Ti  Ti420     1.0  0.26829  0.27460  0.47242  1.0000
  Ti  Ti421     1.0  0.00000  0.33333  0.47447  1.0000
  Ti  Ti422     1.0  0.25610  0.16667  0.47447  1.0000
  Ti  Ti423     1.0  0.50000  0.22540  0.47651  1.0000
  Ti  Ti424     1.0  0.24390  0.05873  0.47651  1.0000
  Ti  Ti425     1.0  0.48780  0.11746  0.47855  1.0000
  Ti  Ti426     1.0  0.23171  0.28413  0.47855  1.0000
  Ti  Ti427     1.0  0.47561  0.00952  0.48060  1.0000
  Ti  Ti428     1.0  0.21951  0.17619  0.48060  1.0000
  Ti  Ti429     1.0  0.46341  0.23492  0.48264  1.0000
  Ti  Ti430     1.0  0.20732  0.06825  0.48264  1.0000
  Ti  Ti431     1.0  0.45122  0.12698  0.48468  1.0000
  Ti  Ti432     1.0  0.19512  0.29365  0.48468  1.0000
  Ti  Ti433     1.0  0.43902  0.01905  0.48672  1.0000
  Ti  Ti434     1.0  0.18293  0.18571  0.48672  1.0000
  Ti  Ti435     1.0  0.42683  0.24444  0.48877  1.0000
  Ti  Ti436     1.0  0.17073  0.07778  0.48877  1.0000
  Ti  Ti437     1.0  0.41463  0.13651  0.49081  1.0000
  Ti  Ti438     1.0  0.15854  0.30317  0.49081  1.0000
  Ti  Ti439     1.0  0.40244  0.02857  0.49285  1.0000
  Ti  Ti440     1.0  0.14634  0.19524  0.49285  1.0000
  Ti  Ti441     1.0  0.39024  0.25397  0.49489  1.0000
  Ti  Ti442     1.0  0.13415  0.08730  0.49489  1.0000
  Ti  Ti443     1.0  0.37805  0.14603  0.49694  1.0000
  Ti  Ti444     1.0  0.12195  0.31270  0.49694  1.0000
  Ti  Ti445     1.0  0.36585  0.03810  0.49898  1.0000
  Ti  Ti446     1.0  0.10976  0.20476  0.49898  1.0000
  Ti  Ti447     1.0  0.00000  0.33333  0.04552  1.0000
  Ti  Ti448     1.0  0.25610  0.50000  0.04552  1.0000
  Ti  Ti449     1.0  0.50000  0.55873  0.04756  1.0000
  Ti  Ti450     1.0  0.24390  0.39206  0.04756  1.0000
  Ti  Ti451     1.0  0.48780  0.45079  0.04960  1.0000
  Ti  Ti452     1.0  0.23171  0.61746  0.04960  1.0000
  Ti  Ti453     1.0  0.47561  0.34286  0.05164  1.0000
  Ti  Ti454     1.0  0.21951  0.50952  0.05164  1.0000
  Ti  Ti455     1.0  0.46341  0.56825  0.05369  1.0000
  Ti  Ti456     1.0  0.20732  0.40159  0.05369  1.0000
  Ti  Ti457     1.0  0.45122  0.46032  0.05573  1.0000
  Ti  Ti458     1.0  0.19512  0.62698  0.05573  1.0000
  Ti  Ti459     1.0  0.43902  0.35238  0.05777  1.0000
  Ti  Ti460     1.0  0.18293  0.51905  0.05777  1.0000
  Ti  Ti461     1.0  0.42683  0.57778  0.05981  1.0000
  Ti  Ti462     1.0  0.17073  0.41111  0.05981  1.0000
  Ti  Ti463     1.0  0.41463  0.46984  0.06186  1.0000
  Ti  Ti464     1.0  0.15854  0.63651  0.06186  1.0000
  Ti  Ti465     1.0  0.40244  0.36190  0.06390  1.0000
  Ti  Ti466     1.0  0.14634  0.52857  0.06390  1.0000
  Ti  Ti467     1.0  0.39024  0.58730  0.06594  1.0000
  Ti  Ti468     1.0  0.13415  0.42063  0.06594  1.0000
  Ti  Ti469     1.0  0.37805  0.47937  0.06799  1.0000
  Ti  Ti470     1.0  0.12195  0.64603  0.06799  1.0000
  Ti  Ti471     1.0  0.36585  0.37143  0.07003  1.0000
  Ti  Ti472     1.0  0.10976  0.53810  0.07003  1.0000
  Ti  Ti473     1.0  0.35366  0.59683  0.07207  1.0000
  Ti  Ti474     1.0  0.09756  0.43016  0.07207  1.0000
  Ti  Ti475     1.0  0.34146  0.48889  0.07411  1.0000
  Ti  Ti476     1.0  0.08537  0.65556  0.07411  1.0000
  Ti  Ti477     1.0  0.32927  0.38095  0.07616  1.0000
  Ti  Ti478     1.0  0.07317  0.54762  0.07616  1.0000
  Ti  Ti479     1.0  0.31707  0.60635  0.07820  1.0000
  Ti  Ti480     1.0  0.06098  0.43968  0.07820  1.0000
  Ti  Ti481     1.0  0.30488  0.49841  0.08024  1.0000
  Ti  Ti482     1.0  0.04878  0.66508  0.08024  1.0000
  Ti  Ti483     1.0  0.29268  0.39048  0.08228  1.0000
  Ti  Ti484     1.0  0.03659  0.55714  0.08228  1.0000
  Ti  Ti485     1.0  0.28049  0.61587  0.08433  1.0000
  Ti  Ti486     1.0  0.02439  0.44921  0.08433  1.0000
  Ti  Ti487     1.0  0.26829  0.50794  0.08637  1.0000
  Ti  Ti488     1.0  0.01220  0.34127  0.08637  1.0000
  Ti  Ti489     1.0  0.25610  0.40000  0.08841  1.0000
  Ti  Ti490     1.0  0.00000  0.56667  0.08841  1.0000
  Ti  Ti491     1.0  0.24390  0.62540  0.09045  1.0000
  Ti  Ti492     1.0  0.50000  0.45873  0.09045  1.0000
  Ti  Ti493     1.0  0.23171  0.51746  0.09250  1.0000
  Ti  Ti494     1.0  0.48780  0.35079  0.09250  1.0000
  Ti  Ti495     1.0  0.21951  0.40952  0.09454  1.0000
  Ti  Ti496     1.0  0.47561  0.57619  0.09454  1.0000
  Ti  Ti497     1.0  0.20732  0.63492  0.09658  1.0000
  Ti  Ti498     1.0  0.46341  0.46825  0.09658  1.0000
  Ti  Ti499     1.0  0.19512  0.52698  0.09862  1.0000
  Ti  Ti500     1.0  0.45122  0.36032  0.09862  1.0000
  Ti  Ti501     1.0  0.18293  0.41905  0.10067  1.0000
  Ti  Ti502     1.0  0.43902  0.58571  0.10067  1.0000
  Ti  Ti503     1.0  0.17073  0.64444  0.10271  1.0000
  Ti  Ti504     1.0  0.42683  0.47778  0.10271  1.0000
  Ti  Ti505     1.0  0.15854  0.53651  0.10475  1.0000
  Ti  Ti506     1.0  0.41463  0.36984  0.10475  1.0000
  Ti  Ti507     1.0  0.14634  0.42857  0.10679  1.0000
  Ti  Ti508     1.0  0.40244  0.59524  0.10679  1.0000
  Ti  Ti509     1.0  0.13415  0.65397  0.10884  1.0000
  Ti  Ti510     1.0  0.39024  0.48730  0.10884  1.0000
  Ti  Ti511     1.0  0.12195  0.54603  0.11088  1.0000
  Ti  Ti512     1.0  0.37805  0.37937  0.11088  1.0000
  Ti  Ti513     1.0  0.10976  0.43810  0.11292  1.0000
  Ti  Ti514     1.0  0.36585  0.60476  0.11292  1.0000
  Ti  Ti515     1.0  0.09756  0.66349  0.11497  1.0000
  Ti  Ti516     1.0  0.35366  0.49683  0.11497  1.0000
  Ti  Ti517     1.0  0.08537  0.55556  0.11701  1.0000
  Ti  Ti518     1.0  0.34146  0.38889  0.11701  1.0000
  Ti  Ti519     1.0  0.07317  0.44762  0.11905  1.0000
  Ti  Ti520     1.0  0.32927  0.61429  0.11905  1.0000
  Ti  Ti521     1.0  0.06098  0.33968  0.12109  1.0000
  Ti  Ti522     1.0  0.31707  0.50635  0.12109  1.0000
  Ti  Ti523     1.0  0.04878  0.56508  0.12314  1.0000
  Ti  Ti524     1.0  0.30488  0.39841  0.12314  1.0000
  Ti  Ti525     1.0  0.03659  0.45714  0.12518  1.0000
  Ti  Ti526     1.0  0.29268  0.62381  0.12518  1.0000
  Ti  Ti527     1.0  0.02439  0.34921  0.12722  1.0000
  Ti  Ti528     1.0  0.28049  0.51587  0.12722  1.0000
  Ti  Ti529     1.0  0.01220  0.57460  0.12926  1.0000
  Ti  Ti530     1.0  0.26829  0.40794  0.12926  1.0000
  Ti  Ti531     1.0  0.00000  0.46667  0.13131  1.0000
  Ti  Ti532     1.0  0.25610  0.63333  0.13131  1.0000
  Ti  Ti533     1.0  0.50000  0.35873  0.13335  1.0000
  Ti  Ti534     1.0  0.24390  0.52540  0.13335  1.0000
  Ti  Ti535     1.0  0.48780  0.58413  0.13539  1.0000
  Ti  Ti536     1.0  0.23171  0.41746  0.13539  1.0000
  Ti  Ti537     1.0  0.47561  0.47619  0.13743  1.0000
  Ti  Ti538     1.0  0.21951  0.64286  0.13743  1.0000
  Ti  Ti539     1.0  0.46341  0.36825  0.13948  1.0000
  Ti  Ti540     1.0  0.20732  0.53492  0.13948  1.0000
  Ti  Ti541     1.0  0.45122  0.59365  0.14152  1.0000
  Ti  Ti542     1.0  0.19512  0.42698  0.14152  1.0000
  Ti  Ti543     1.0  0.43902  0.48571  0.14356  1.0000
  Ti  Ti544     1.0  0.18293  0.65238  0.14356  1.0000
  Ti  Ti545     1.0  0.42683  0.37778  0.14560  1.0000
  Ti  Ti546     1.0  0.17073  0.54444  0.14560  1.0000
  Ti  Ti547     1.0  0.41463  0.60317  0.14765  1.0000
  Ti  Ti548     1.0  0.15854  0.43651  0.14765  1.0000
  Ti  Ti549     1.0  0.40244  0.49524  0.14969  1.0000
  Ti  Ti550     1.0  0.14634  0.66190  0.14969  1.0000
  Ti  Ti551     1.0  0.39024  0.38730  0.15173  1.0000
  Ti  Ti552     1.0  0.13415  0.55397  0.15173  1.0000
  Ti  Ti553     1.0  0.37805  0.61270  0.15378  1.0000
  Ti  Ti554     1.0  0.12195  0.44603  0.15378  1.0000
  Ti  Ti555     1.0  0.36585  0.50476  0.15582  1.0000
  Ti  Ti556     1.0  0.10976  0.33810  0.15582  1.0000
  Ti  Ti557     1.0  0.35366  0.39683  0.15786  1.0000
  Ti  Ti558     1.0  0.09756  0.56349  0.15786  1.0000
  Ti  Ti559     1.0  0.34146  0.62222  0.15990  1.0000
  Ti  Ti560     1.0  0.08537  0.45556  0.15990  1.0000
  Ti  Ti561     1.0  0.32927  0.51429  0.16195  1.0000
  Ti  Ti562     1.0  0.07317  0.34762  0.16195  1.0000
  Ti  Ti563     1.0  0.31707  0.40635  0.16399  1.0000
  Ti  Ti564     1.0  0.06098  0.57302  0.16399  1.0000
  Ti  Ti565     1.0  0.30488  0.63175  0.16603  1.0000
  Ti  Ti566     1.0  0.04878  0.46508  0.16603  1.0000
  Ti  Ti567     1.0  0.29268  0.52381  0.16807  1.0000
  Ti  Ti568     1.0  0.03659  0.35714  0.16807  1.0000
  Ti  Ti569     1.0  0.28049  0.41587  0.17012  1.0000
  Ti  Ti570     1.0  0.02439  0.58254  0.17012  1.0000
  Ti  Ti571     1.0  0.26829  0.64127  0.17216  1.0000
  Ti  Ti572     1.0  0.01220  0.47460  0.17216  1.0000
  Ti  Ti573     1.0  0.25610  0.53333  0.17420  1.0000
  Ti  Ti574     1.0  0.00000  0.36667  0.17420  1.0000
  Ti  Ti575     1.0  0.24390  0.42540  0.17624  1.0000
  Ti  Ti576     1.0  0.50000  0.59206  0.17624  1.0000
  Ti  Ti577     1.0  0.23171  0.65079  0.17829  1.0000
  Ti  Ti578     1.0  0.48780  0.48413  0.17829  1.0000
  Ti  Ti579     1.0  0.21951  0.54286  0.18033  1.0000
  Ti  Ti580     1.0  0.47561  0.37619  0.18033  1.0000
  Ti  Ti581     1.0  0.20732  0.43492  0.18237  1.0000
  Ti  Ti582     1.0  0.46341  0.60159  0.18237  1.0000
  Ti  Ti583     1.0  0.19512  0.66032  0.18441  1.0000
  Ti  Ti584     1.0  0.45122  0.49365  0.18441  1.0000
  Ti  Ti585     1.0  0.18293  0.55238  0.18646  1.0000
  Ti  Ti586     1.0  0.43902  0.38571  0.18646  1.0000
  Ti  Ti587     1.0  0.17073  0.44444  0.18850  1.0000
  Ti  Ti588     1.0  0.42683  0.61111  0.18850  1.0000
  Ti  Ti589     1.0  0.15854  0.33651  0.19054  1.0000
  Ti  Ti590     1.0  0.41463  0.50317  0.19054  1.0000
  Ti  Ti591     1.0  0.14634  0.56190  0.19259  1.0000
  Ti  Ti592     1.0  0.40244  0.39524  0.19259  1.0000
  Ti  Ti593     1.0  0.13415  0.45397  0.19463  1.0000
  Ti  Ti594     1.0  0.39024  0.62063  0.19463  1.0000
  Ti  Ti595     1.0  0.12195  0.34603  0.19667  1.0000
  Ti  Ti596     1.0  0.37805  0.51270  0.19667  1.0000
  Ti  Ti597     1.0  0.10976  0.57143  0.19871  1.0000
  Ti  Ti598     1.0  0.36585  0.40476  0.19871  1.0000
  Ti  Ti599     1.0  0.09756  0.46349  0.20076  1.0000
  Ti  Ti600     1.0  0.35366  0.63016  0.20076  1.0000
  Ti  Ti601     1.0  0.08537  0.35556  0.20280  1.0000
  Ti  Ti602     1.0  0.34146  0.52222  0.20280  1.0000
  Ti  Ti603     1.0  0.07317  0.58095  0.20484  1.0000
  Ti  Ti604     1.0  0.32927  0.41429  0.20484  1.0000
  Ti  Ti605     1.0  0.06098  0.47302  0.20688  1.0000
  Ti  Ti606     1.0  0.31707  0.63968  0.20688  1.0000
  Ti  Ti607     1.0  0.04878  0.36508  0.20893  1.0000
  Ti  Ti608     1.0  0.30488  0.53175  0.20893  1.0000
  Ti  Ti609     1.0  0.03659  0.59048  0.21097  1.0000
  Ti  Ti610     1.0  0.29268  0.42381  0.21097  1.0000
  Ti  Ti611     1.0  0.02439  0.48254  0.21301  1.0000
  Ti  Ti612     1.0  0.28049  0.64921  0.21301  1.0000
  Ti  Ti613     1.0  0.01220  0.37460  0.21505  1.0000
  Ti  Ti614     1.0  0.26829  0.54127  0.21505  1.0000
  Ti  Ti615     1.0  0.00000  0.60000  0.21710  1.0000
  Ti  Ti616     1.0  0.25610  0.43333  0.21710  1.0000
  Ti  Ti617     1.0  0.50000  0.49206  0.21914  1.0000
  Ti  Ti618     1.0  0.24390  0.65873  0.21914  1.0000
  Ti  Ti619     1.0  0.48780  0.38413  0.22118  1.0000
  Ti  Ti620     1.0  0.23171  0.55079  0.22118  1.0000
  Ti  Ti621     1.0  0.47561  0.60952  0.22322  1.0000
  Ti  Ti622     1.0  0.21951  0.44286  0.22322  1.0000
  Ti  Ti623     1.0  0.46341  0.50159  0.22527  1.0000
  Ti  Ti624     1.0  0.20732  0.33492  0.22527  1.0000
  Ti  Ti625     1.0  0.45122  0.39365  0.22731  1.0000
  Ti  Ti626     1.0  0.19512  0.56032  0.22731  1.0000
  Ti  Ti627     1.0  0.43902  0.61905  0.22935  1.0000
  Ti  Ti628     1.0  0.18293  0.45238  0.22935  1.0000
  Ti  Ti629     1.0  0.42683  0.51111  0.23139  1.0000
  Ti  Ti630     1.0  0.17073  0.34444  0.23139  1.0000
  Ti  Ti631     1.0  0.41463  0.40317  0.23344  1.0000
  Ti  Ti632     1.0  0.15854  0.56984  0.23344  1.0000
  Ti  Ti633     1.0  0.40244  0.62857  0.23548  1.0000
  Ti  Ti634     1.0  0.14634  0.46190  0.23548  1.0000
  Ti  Ti635     1.0  0.39024  0.52063  0.23752  1.0000
  Ti  Ti636     1.0  0.13415  0.35397  0.23752  1.0000
  Ti  Ti637     1.0  0.37805  0.41270  0.23957  1.0000
  Ti  Ti638     1.0  0.12195  0.57937  0.23957  1.0000
  Ti  Ti639     1.0  0.36585  0.63810  0.24161  1.0000
  Ti  Ti640     1.0  0.10976  0.47143  0.24161  1.0000
  Ti  Ti641     1.0  0.35366  0.53016  0.24365  1.0000
  Ti  Ti642     1.0  0.09756  0.36349  0.24365  1.0000
  Ti  Ti643     1.0  0.34146  0.42222  0.24569  1.0000
  Ti  Ti644     1.0  0.08537  0.58889  0.24569  1.0000
  Ti  Ti645     1.0  0.32927  0.64762  0.24774  1.0000
  Ti  Ti646     1.0  0.07317  0.48095  0.24774  1.0000
  Ti  Ti647     1.0  0.31707  0.53968  0.24978  1.0000
  Ti  Ti648     1.0  0.06098  0.37302  0.24978  1.0000
  Ti  Ti649     1.0  0.30488  0.43175  0.25182  1.0000
  Ti  Ti650     1.0  0.04878  0.59841  0.25182  1.0000
  Ti  Ti651     1.0  0.29268  0.65714  0.25386  1.0000
  Ti  Ti652     1.0  0.03659  0.49048  0.25386  1.0000
  Ti  Ti653     1.0  0.28049  0.54921  0.25591  1.0000
  Ti  Ti654     1.0  0.02439  0.38254  0.25591  1.0000
  Ti  Ti655     1.0  0.26829  0.44127  0.25795  1.0000
  Ti  Ti656     1.0  0.01220  0.60794  0.25795  1.0000
  Ti  Ti657     1.0  0.25610  0.66667  0.25999  1.0000
  Ti  Ti658     1.0  0.00000  0.50000  0.25999  1.0000
  Ti  Ti659     1.0  0.24390  0.55873  0.26203  1.0000
  Ti  Ti660     1.0  0.50000  0.39206  0.26203  1.0000
  Ti  Ti661     1.0  0.23171  0.45079  0.26408  1.0000
  Ti  Ti662     1.0  0.48780  0.61746  0.26408  1.0000
  Ti  Ti663     1.0  0.21951  0.34286  0.26612  1.0000
  Ti  Ti664     1.0  0.47561  0.50952  0.26612  1.0000
  Ti  Ti665     1.0  0.20732  0.56825  0.26816  1.0000
  Ti  Ti666     1.0  0.46341  0.40159  0.26816  1.0000
  Ti  Ti667     1.0  0.19512  0.46032  0.27020  1.0000
  Ti  Ti668     1.0  0.45122  0.62698  0.27020  1.0000
  Ti  Ti669     1.0  0.18293  0.35238  0.27225  1.0000
  Ti  Ti670     1.0  0.43902  0.51905  0.27225  1.0000
  Ti  Ti671     1.0  0.17073  0.57778  0.27429  1.0000
  Ti  Ti672     1.0  0.42683  0.41111  0.27429  1.0000
  Ti  Ti673     1.0  0.15854  0.46984  0.27633  1.0000
  Ti  Ti674     1.0  0.41463  0.63651  0.27633  1.0000
  Ti  Ti675     1.0  0.14634  0.36190  0.27838  1.0000
  Ti  Ti676     1.0  0.40244  0.52857  0.27838  1.0000
  Ti  Ti677     1.0  0.13415  0.58730  0.28042  1.0000
  Ti  Ti678     1.0  0.39024  0.42063  0.28042  1.0000
  Ti  Ti679     1.0  0.12195  0.47937  0.28246  1.0000
  Ti  Ti680     1.0  0.37805  0.64603  0.28246  1.0000
  Ti  Ti681     1.0  0.10976  0.37143  0.28450  1.0000
  Ti  Ti682     1.0  0.36585  0.53810  0.28450  1.0000
  Ti  Ti683     1.0  0.09756  0.59683  0.28655  1.0000
  Ti  Ti684     1.0  0.35366  0.43016  0.28655  1.0000
  Ti  Ti685     1.0  0.08537  0.48889  0.28859  1.0000
  Ti  Ti686     1.0  0.34146  0.65556  0.28859  1.0000
  Ti  Ti687     1.0  0.07317  0.38095  0.29063  1.0000
  Ti  Ti688     1.0  0.32927  0.54762  0.29063  1.0000
  Ti  Ti689     1.0  0.06098  0.60635  0.29267  1.0000
  Ti  Ti690     1.0  0.31707  0.43968  0.29267  1.0000
  Ti  Ti691     1.0  0.04878  0.49841  0.29472  1.0000
  Ti  Ti692     1.0  0.30488  0.66508  0.29472  1.0000
  Ti  Ti693     1.0  0.03659  0.39048  0.29676  1.0000
  Ti  Ti694     1.0  0.29268  0.55714  0.29676  1.0000
  Ti  Ti695     1.0  0.02439  0.61587  0.29880  1.0000
  Ti  Ti696     1.0  0.28049  0.44921  0.29880  1.0000
  Ti  Ti697     1.0  0.01220  0.50794  0.30084  1.0000
  Ti  Ti698     1.0  0.26829  0.34127  0.30084  1.0000
  Ti  Ti699     1.0  0.00000  0.40000  0.30289  1.0000
  Ti  Ti700     1.0  0.25610  0.56667  0.30289  1.0000
  Ti  Ti701     1.0  0.50000  0.62540  0.30493  1.0000
  Ti  Ti702     1.0  0.24390  0.45873  0.30493  1.0000
  Ti  Ti703     1.0  0.48780  0.51746  0.30697  1.0000
  Ti  Ti704     1.0  0.23171  0.35079  0.30697  1.0000
  Ti  Ti705     1.0  0.47561  0.40952  0.30901  1.0000
  Ti  Ti706     1.0  0.21951  0.57619  0.30901  1.0000
  Ti  Ti707     1.0  0.46341  0.63492  0.31106  1.0000
  Ti  Ti708     1.0  0.20732  0.46825  0.31106  1.0000
  Ti  Ti709     1.0  0.45122  0.52698  0.31310  1.0000
  Ti  Ti710     1.0  0.19512  0.36032  0.31310  1.0000
  Ti  Ti711     1.0  0.43902  0.41905  0.31514  1.0000
  Ti  Ti712     1.0  0.18293  0.58571  0.31514  1.0000
  Ti  Ti713     1.0  0.42683  0.64444  0.31719  1.0000
  Ti  Ti714     1.0  0.17073  0.47778  0.31719  1.0000
  Ti  Ti715     1.0  0.41463  0.53651  0.31923  1.0000
  Ti  Ti716     1.0  0.15854  0.36984  0.31923  1.0000
  Ti  Ti717     1.0  0.40244  0.42857  0.32127  1.0000
  Ti  Ti718     1.0  0.14634  0.59524  0.32127  1.0000
  Ti  Ti719     1.0  0.39024  0.65397  0.32331  1.0000
  Ti  Ti720     1.0  0.13415  0.48730  0.32331  1.0000
  Ti  Ti721     1.0  0.37805  0.54603  0.32536  1.0000
  Ti  Ti722     1.0  0.12195  0.37937  0.32536  1.0000
  Ti  Ti723     1.0  0.36585  0.43810  0.32740  1.0000
  Ti  Ti724     1.0  0.10976  0.60476  0.32740  1.0000
  Ti  Ti725     1.0  0.35366  0.66349  0.32944  1.0000
  Ti  Ti726     1.0  0.09756  0.49683  0.32944  1.0000
  Ti  Ti727     1.0  0.34146  0.55556  0.33148  1.0000
  Ti  Ti728     1.0  0.08537  0.38889  0.33148  1.0000
  Ti  Ti729     1.0  0.32927  0.44762  0.33353  1.0000
  Ti  Ti730     1.0  0.07317  0.61429  0.33353  1.0000
  Ti  Ti731     1.0  0.31707  0.33968  0.33557  1.0000
  Ti  Ti732     1.0  0.06098  0.50635  0.33557  1.0000
  Ti  Ti733     1.0  0.30488  0.56508  0.33761  1.0000
  Ti  Ti734     1.0  0.04878  0.39841  0.33761  1.0000
  Ti  Ti735     1.0  0.29268  0.45714  0.33965  1.0000
  Ti  Ti736     1.0  0.03659  0.62381  0.33965  1.0000
  Ti  Ti737     1.0  0.28049  0.34921  0.34170  1.0000
  Ti  Ti738     1.0  0.02439  0.51587  0.34170  1.0000
  Ti  Ti739     1.0  0.26829  0.57460  0.34374  1.0000
  Ti  Ti740     1.0  0.01220  0.40794  0.34374  1.0000
  Ti  Ti741     1.0  0.25610  0.46667  0.34578  1.0000
  Ti  Ti742     1.0  0.00000  0.63333  0.34578  1.0000
  Ti  Ti743     1.0  0.24390  0.35873  0.34782  1.0000
  Ti  Ti744     1.0  0.50000  0.52540  0.34782  1.0000
  Ti  Ti745     1.0  0.23171  0.58413  0.34987  1.0000
  Ti  Ti746     1.0  0.48780  0.41746  0.34987  1.0000
  Ti  Ti747     1.0  0.21951  0.47619  0.35191  1.0000
  Ti  Ti748     1.0  0.47561  0.64286  0.35191  1.0000
  Ti  Ti749     1.0  0.20732  0.36825  0.35395  1.0000
  Ti  Ti750     1.0  0.46341  0.53492  0.35395  1.0000
  Ti  Ti751     1.0  0.19512  0.59365  0.35600  1.0000
  Ti  Ti752     1.0  0.45122  0.42698  0.35600  1.0000
  Ti  Ti753     1.0  0.18293  0.48571  0.35804  1.0000
  Ti  Ti754     1.0  0.43902  0.65238  0.35804  1.0000
  Ti  Ti755     1.0  0.17073  0.37778  0.36008  1.0000
  Ti  Ti756     1.0  0.42683  0.54444  0.36008  1.0000
  Ti  Ti757     1.0  0.15854  0.60317  0.36212  1.0000
  Ti  Ti758     1.0  0.41463  0.43651  0.36212  1.0000
  Ti  Ti759     1.0  0.14634  0.49524  0.36417  1.0000
  Ti  Ti760     1.0  0.40244  0.66190  0.36417  1.0000
  Ti  Ti761     1.0  0.13415  0.38730  0.36621  1.0000
  Ti  Ti762     1.0  0.39024  0.55397  0.36621  1.0000
  Ti  Ti763     1.0  0.12195  0.61270  0.36825  1.0000
  Ti  Ti764     1.0  0.37805  0.44603  0.36825  1.0000
  Ti  Ti765     1.0  0.10976  0.50476  0.37029  1.0000
  Ti  Ti766     1.0  0.36585  0.33810  0.37029  1.0000
  Ti  Ti767     1.0  0.09756  0.39683  0.37234  1.0000
  Ti  Ti768     1.0  0.35366  0.56349  0.37234  1.0000
  Ti  Ti769     1.0  0.08537  0.62222  0.37438  1.0000
  Ti  Ti770     1.0  0.34146  0.45556  0.37438  1.0000
  Ti  Ti771     1.0  0.07317  0.51429  0.37642  1.0000
  Ti  Ti772     1.0  0.32927  0.34762  0.37642  1.0000
  Ti  Ti773     1.0  0.06098  0.40635  0.37846  1.0000
  Ti  Ti774     1.0  0.31707  0.57302  0.37846  1.0000
  Ti  Ti775     1.0  0.04878  0.63175  0.38051  1.0000
  Ti  Ti776     1.0  0.30488  0.46508  0.38051  1.0000
  Ti  Ti777     1.0  0.03659  0.52381  0.38255  1.0000
  Ti  Ti778     1.0  0.29268  0.35714  0.38255  1.0000
  Ti  Ti779     1.0  0.02439  0.41587  0.38459  1.0000
  Ti  Ti780     1.0  0.28049  0.58254  0.38459  1.0000
  Ti  Ti781     1.0  0.01220  0.64127  0.38663  1.0000
  Ti  Ti782     1.0  0.26829  0.47460  0.38663  1.0000
  Ti  Ti783     1.0  0.00000  0.53333  0.38868  1.0000
  Ti  Ti784     1.0  0.25610  0.36667  0.38868  1.0000
  Ti  Ti785     1.0  0.50000  0.42540  0.39072  1.0000
  Ti  Ti786     1.0  0.24390  0.59206  0.39072  1.0000
  Ti  Ti787     1.0  0.48780  0.65079  0.39276  1.0000
  Ti  Ti788     1.0  0.23171  0.48413  0.39276  1.0000
  Ti  Ti789     1.0  0.47561  0.54286  0.39480  1.0000
  Ti  Ti790     1.0  0.21951  0.37619  0.39480  1.0000
  Ti  Ti791     1.0  0.46341  0.43492  0.39685  1.0000
  Ti  Ti792     1.0  0.20732  0.60159  0.39685  1.0000
  Ti  Ti793     1.0  0.45122  0.66032  0.39889  1.0000
  Ti  Ti794     1.0  0.19512  0.49365  0.39889  1.0000
  Ti  Ti795     1.0  0.43902  0.55238  0.40093  1.0000
  Ti  Ti796     1.0  0.18293  0.38571  0.40093  1.0000
  Ti  Ti797     1.0  0.42683  0.44444  0.40298  1.0000
  Ti  Ti798     1.0  0.17073  0.61111  0.40298  1.0000
  Ti  Ti799     1.0  0.41463  0.33651  0.40502  1.0000
  Ti  Ti800     1.0  0.15854  0.50317  0.40502  1.0000
  Ti  Ti801     1.0  0.40244  0.56190  0.40706  1.0000
  Ti  Ti802     1.0  0.14634  0.39524  0.40706  1.0000
  Ti  Ti803     1.0  0.39024  0.45397  0.40910  1.0000
  Ti  Ti804     1.0  0.13415  0.62063  0.40910  1.0000
  Ti  Ti805     1.0  0.37805  0.34603  0.41115  1.0000
  Ti  Ti806     1.0  0.12195  0.51270  0.41115  1.0000
  Ti  Ti807     1.0  0.36585  0.57143  0.41319  1.0000
  Ti  Ti808     1.0  0.10976  0.40476  0.41319  1.0000
  Ti  Ti809     1.0  0.35366  0.46349  0.41523  1.0000
  Ti  Ti810     1.0  0.09756  0.63016  0.41523  1.0000
  Ti  Ti811     1.0  0.34146  0.35556  0.41727  1.0000
  Ti  Ti812     1.0  0.08537  0.52222  0.41727  1.0000
  Ti  Ti813     1.0  0.32927  0.58095  0.41932  1.0000
  Ti  Ti814     1.0  0.07317  0.41429  0.41932  1.0000
  Ti  Ti815     1.0  0.31707  0.47302  0.42136  1.0000
  Ti  Ti816     1.0  0.06098  0.63968  0.42136  1.0000
  Ti  Ti817     1.0  0.30488  0.36508  0.42340  1.0000
  Ti  Ti818     1.0  0.04878  0.53175  0.42340  1.0000
  Ti  Ti819     1.0  0.29268  0.59048  0.42544  1.0000
  Ti  Ti820     1.0  0.03659  0.42381  0.42544  1.0000
  Ti  Ti821     1.0  0.28049  0.48254  0.42749  1.0000
  Ti  Ti822     1.0  0.02439  0.64921  0.42749  1.0000
  Ti  Ti823     1.0  0.26829  0.37460  0.42953  1.0000
  Ti  Ti824     1.0  0.01220  0.54127  0.42953  1.0000
  Ti  Ti825     1.0  0.25610  0.60000  0.43157  1.0000
  Ti  Ti826     1.0  0.00000  0.43333  0.43157  1.0000
  Ti  Ti827     1.0  0.24390  0.49206  0.43361  1.0000
  Ti  Ti828     1.0  0.50000  0.65873  0.43361  1.0000
  Ti  Ti829     1.0  0.23171  0.38413  0.43566  1.0000
  Ti  Ti830     1.0  0.48780  0.55079  0.43566  1.0000
  Ti  Ti831     1.0  0.21951  0.60952  0.43770  1.0000
  Ti  Ti832     1.0  0.47561  0.44286  0.43770  1.0000
  Ti  Ti833     1.0  0.20732  0.50159  0.43974  1.0000
  Ti  Ti834     1.0  0.46341  0.33492  0.43974  1.0000
  Ti  Ti835     1.0  0.19512  0.39365  0.44179  1.0000
  Ti  Ti836     1.0  0.45122  0.56032  0.44179  1.0000
  Ti  Ti837     1.0  0.18293  0.61905  0.44383  1.0000
  Ti  Ti838     1.0  0.43902  0.45238  0.44383  1.0000
  Ti  Ti839     1.0  0.17073  0.51111  0.44587  1.0000
  Ti  Ti840     1.0  0.42683  0.34444  0.44587  1.0000
  Ti  Ti841     1.0  0.15854  0.40317  0.44791  1.0000
  Ti  Ti842     1.0  0.41463  0.56984  0.44791  1.0000
  Ti  Ti843     1.0  0.14634  0.62857  0.44996  1.0000
  Ti  Ti844     1.0  0.40244  0.46190  0.44996  1.0000
  Ti  Ti845     1.0  0.13415  0.52063  0.45200  1.0000
  Ti  Ti846     1.0  0.39024  0.35397  0.45200  1.0000
  Ti  Ti847     1.0  0.12195  0.41270  0.45404  1.0000
  Ti  Ti848     1.0  0.37805  0.57937  0.45404  1.0000
  Ti  Ti849     1.0  0.10976  0.63810  0.45608  1.0000
  Ti  Ti850     1.0  0.36585  0.47143  0.45608  1.0000
  Ti  Ti851     1.0  0.09756  0.53016  0.45813  1.0000
  Ti  Ti852     1.0  0.35366  0.36349  0.45813  1.0000
  Ti  Ti853     1.0  0.08537  0.42222  0.46017  1.0000
  Ti  Ti854     1.0  0.34146  0.58889  0.46017  1.0000
  Ti  Ti855     1.0  0.07317  0.64762  0.46221  1.0000
  Ti  Ti856     1.0  0.32927  0.48095  0.46221  1.0000
  Ti  Ti857     1.0  0.06098  0.53968  0.46425  1.0000
  Ti  Ti858     1.0  0.31707  0.37302  0.46425  1.0000
  Ti  Ti859     1.0  0.04878  0.43175  0.46630  1.0000
  Ti  Ti860     1.0  0.30488  0.59841  0.46630  1.0000
  Ti  Ti861     1.0  0.03659  0.65714  0.46834  1.0000
  Ti  Ti862     1.0  0.29268  0.49048  0.46834  1.0000
  Ti  Ti863     1.0  0.02439  0.54921  0.47038  1.0000
  Ti  Ti864     1.0  0.28049  0.38254  0.47038  1.0000
  Ti  Ti865     1.0  0.01220  0.44127  0.47242  1.0000
  Ti  Ti866     1.0  0.26829  0.60794  0.47242  1.0000
  Ti  Ti867     1.0  0.00000  0.66667  0.47447  1.0000
  Ti  Ti868     1.0  0.25610  0.50000  0.47447  1.0000
  Ti  Ti869     1.0  0.50000  0.55873  0.47651  1.0000
  Ti  Ti870     1.0  0.24390  0.39206  0.47651  1.0000
  Ti  Ti871     1.0  0.48780  0.45079  0.47855  1.0000
  Ti  Ti872     1.0  0.23171  0.61746  0.47855  1.0000
  Ti  Ti873     1.0  0.47561  0.34286  0.48060  1.0000
  Ti  Ti874     1.0  0.21951  0.50952  0.48060  1.0000
  Ti  Ti875     1.0  0.46341  0.56825  0.48264  1.0000
  Ti  Ti876     1.0  0.20732  0.40159  0.48264  1.0000
  Ti  Ti877     1.0  0.45122  0.46032  0.48468  1.0000
  Ti  Ti878     1.0  0.19512  0.62698  0.48468  1.0000
  Ti  Ti879     1.0  0.43902  0.35238  0.48672  1.0000
  Ti  Ti880     1.0  0.18293  0.51905  0.48672  1.0000
  Ti  Ti881     1.0  0.42683  0.57778  0.48877  1.0000
  Ti  Ti882     1.0  0.17073  0.41111  0.48877  1.0000
  Ti  Ti883     1.0  0.41463  0.46984  0.49081  1.0000
  Ti  Ti884     1.0  0.15854  0.63651  0.49081  1.0000
  Ti  Ti885     1.0  0.40244  0.36190  0.49285  1.0000
  Ti  Ti886     1.0  0.14634  0.52857  0.49285  1.0000
  Ti  Ti887     1.0  0.39024  0.58730  0.49489  1.0000
  Ti  Ti888     1.0  0.13415  0.42063  0.49489  1.0000
  Ti  Ti889     1.0  0.37805  0.47937  0.49694  1.0000
  Ti  Ti890     1.0  0.12195  0.64603  0.49694  1.0000
  Ti  Ti891     1.0  0.36585  0.37143  0.49898  1.0000
  Ti  Ti892     1.0  0.10976  0.53810  0.49898  1.0000
  Ti  Ti893     1.0  0.00000  0.66667  0.04552  1.0000
  Ti  Ti894     1.0  0.25610  0.83333  0.04552  1.0000
  Ti  Ti895     1.0  0.50000  0.89206  0.04756  1.0000
  Ti  Ti896     1.0  0.24390  0.72540  0.04756  1.0000
  Ti  Ti897     1.0  0.48780  0.78413  0.04960  1.0000
  Ti  Ti898     1.0  0.23171  0.95079  0.04960  1.0000
  Ti  Ti899     1.0  0.47561  0.67619  0.05164  1.0000
  Ti  Ti900     1.0  0.21951  0.84286  0.05164  1.0000
  Ti  Ti901     1.0  0.46341  0.90159  0.05369  1.0000
  Ti  Ti902     1.0  0.20732  0.73492  0.05369  1.0000
  Ti  Ti903     1.0  0.45122  0.79365  0.05573  1.0000
  Ti  Ti904     1.0  0.19512  0.96032  0.05573  1.0000
  Ti  Ti905     1.0  0.43902  0.68571  0.05777  1.0000
  Ti  Ti906     1.0  0.18293  0.85238  0.05777  1.0000
  Ti  Ti907     1.0  0.42683  0.91111  0.05981  1.0000
  Ti  Ti908     1.0  0.17073  0.74444  0.05981  1.0000
  Ti  Ti909     1.0  0.41463  0.80317  0.06186  1.0000
  Ti  Ti910     1.0  0.15854  0.96984  0.06186  1.0000
  Ti  Ti911     1.0  0.40244  0.69524  0.06390  1.0000
  Ti  Ti912     1.0  0.14634  0.86190  0.06390  1.0000
  Ti  Ti913     1.0  0.39024  0.92063  0.06594  1.0000
  Ti  Ti914     1.0  0.13415  0.75397  0.06594  1.0000
  Ti  Ti915     1.0  0.37805  0.81270  0.06799  1.0000
  Ti  Ti916     1.0  0.12195  0.97937  0.06799  1.0000
  Ti  Ti917     1.0  0.36585  0.70476  0.07003  1.0000
  Ti  Ti918     1.0  0.10976  0.87143  0.07003  1.0000
  Ti  Ti919     1.0  0.35366  0.93016  0.07207  1.0000
  Ti  Ti920     1.0  0.09756  0.76349  0.07207  1.0000
  Ti  Ti921     1.0  0.34146  0.82222  0.07411  1.0000
  Ti  Ti922     1.0  0.08537  0.98889  0.07411  1.0000
  Ti  Ti923     1.0  0.32927  0.71429  0.07616  1.0000
  Ti  Ti924     1.0  0.07317  0.88095  0.07616  1.0000
  Ti  Ti925     1.0  0.31707  0.93968  0.07820  1.0000
  Ti  Ti926     1.0  0.06098  0.77302  0.07820  1.0000
  Ti  Ti927     1.0  0.30488  0.83175  0.08024  1.0000
  Ti  Ti928     1.0  0.04878  0.99841  0.08024  1.0000
  Ti  Ti929     1.0  0.29268  0.72381  0.08228  1.0000
  Ti  Ti930     1.0  0.03659  0.89048  0.08228  1.0000
  Ti  Ti931     1.0  0.28049  0.94921  0.08433  1.0000
  Ti  Ti932     1.0  0.02439  0.78254  0.08433  1.0000
  Ti  Ti933     1.0  0.26829  0.84127  0.08637  1.0000
  Ti  Ti934     1.0  0.01220  0.67460  0.08637  1.0000
  Ti  Ti935     1.0  0.25610  0.73333  0.08841  1.0000
  Ti  Ti936     1.0  0.00000  0.90000  0.08841  1.0000
  Ti  Ti937     1.0  0.24390  0.95873  0.09045  1.0000
  Ti  Ti938     1.0  0.50000  0.79206  0.09045  1.0000
  Ti  Ti939     1.0  0.23171  0.85079  0.09250  1.0000
  Ti  Ti940     1.0  0.48780  0.68413  0.09250  1.0000
  Ti  Ti941     1.0  0.21951  0.74286  0.09454  1.0000
  Ti  Ti942     1.0  0.47561  0.90952  0.09454  1.0000
  Ti  Ti943     1.0  0.20732  0.96825  0.09658  1.0000
  Ti  Ti944     1.0  0.46341  0.80159  0.09658  1.0000
  Ti  Ti945     1.0  0.19512  0.86032  0.09862  1.0000
  Ti  Ti946     1.0  0.45122  0.69365  0.09862  1.0000
  Ti  Ti947     1.0  0.18293  0.75238  0.10067  1.0000
  Ti  Ti948     1.0  0.43902  0.91905  0.10067  1.0000
  Ti  Ti949     1.0  0.17073  0.97778  0.10271  1.0000
  Ti  Ti950     1.0  0.42683  0.81111  0.10271  1.0000
  Ti  Ti951     1.0  0.15854  0.86984  0.10475  1.0000
  Ti  Ti952     1.0  0.41463  0.70317  0.10475  1.0000
  Ti  Ti953     1.0  0.14634  0.76190  0.10679  1.0000
  Ti  Ti954     1.0  0.40244  0.92857  0.10679  1.0000
  Ti  Ti955     1.0  0.13415  0.98730  0.10884  1.0000
  Ti  Ti956     1.0  0.39024  0.82063  0.10884  1.0000
  Ti  Ti957     1.0  0.12195  0.87937  0.11088  1.0000
  Ti  Ti958     1.0  0.37805  0.71270  0.11088  1.0000
  Ti  Ti959     1.0  0.10976  0.77143  0.11292  1.0000
  Ti  Ti960     1.0  0.36585  0.93810  0.11292  1.0000
  Ti  Ti961     1.0  0.09756  0.99683  0.11497  1.0000
  Ti  Ti962     1.0  0.35366  0.83016  0.11497  1.0000
  Ti  Ti963     1.0  0.08537  0.88889  0.11701  1.0000
  Ti  Ti964     1.0  0.34146  0.72222  0.11701  1.0000
  Ti  Ti965     1.0  0.07317  0.78095  0.11905  1.0000
  Ti  Ti966     1.0  0.32927  0.94762  0.11905  1.0000
  Ti  Ti967     1.0  0.06098  0.67302  0.12109  1.0000
  Ti  Ti968     1.0  0.31707  0.83968  0.12109  1.0000
  Ti  Ti969     1.0  0.04878  0.89841  0.12314  1.0000
  Ti  Ti970     1.0  0.30488  0.73175  0.12314  1.0000
  Ti  Ti971     1.0  0.03659  0.79048  0.12518  1.0000
  Ti  Ti972     1.0  0.29268  0.95714  0.12518  1.0000
  Ti  Ti973     1.0  0.02439  0.68254  0.12722  1.0000
  Ti  Ti974     1.0  0.28049  0.84921  0.12722  1.0000
  Ti  Ti975     1.0  0.01220  0.90794  0.12926  1.0000
  Ti  Ti976     1.0  0.26829  0.74127  0.12926  1.0000
  Ti  Ti977     1.0  0.00000  0.80000  0.13131  1.0000
  Ti  Ti978     1.0  0.25610  0.96667  0.13131  1.0000
  Ti  Ti979     1.0  0.50000  0.69206  0.13335  1.0000
  Ti  Ti980     1.0  0.24390  0.85873  0.13335  1.0000
  Ti  Ti981     1.0  0.48780  0.91746  0.13539  1.0000
  Ti  Ti982     1.0  0.23171  0.75079  0.13539  1.0000
  Ti  Ti983     1.0  0.47561  0.80952  0.13743  1.0000
  Ti  Ti984     1.0  0.21951  0.97619  0.13743  1.0000
  Ti  Ti985     1.0  0.46341  0.70159  0.13948  1.0000
  Ti  Ti986     1.0  0.20732  0.86825  0.13948  1.0000
  Ti  Ti987     1.0  0.45122  0.92698  0.14152  1.0000
  Ti  Ti988     1.0  0.19512  0.76032  0.14152  1.0000
  Ti  Ti989     1.0  0.43902  0.81905  0.14356  1.0000
  Ti  Ti990     1.0  0.18293  0.98571  0.14356  1.0000
  Ti  Ti991     1.0  0.42683  0.71111  0.14560  1.0000
  Ti  Ti992     1.0  0.17073  0.87778  0.14560  1.0000
  Ti  Ti993     1.0  0.41463  0.93651  0.14765  1.0000
  Ti  Ti994     1.0  0.15854  0.76984  0.14765  1.0000
  Ti  Ti995     1.0  0.40244  0.82857  0.14969  1.0000
  Ti  Ti996     1.0  0.14634  0.99524  0.14969  1.0000
  Ti  Ti997     1.0  0.39024  0.72063  0.15173  1.0000
  Ti  Ti998     1.0  0.13415  0.88730  0.15173  1.0000
  Ti  Ti999     1.0  0.37805  0.94603  0.15378  1.0000
  Ti  Ti1000    1.0  0.12195  0.77937  0.15378  1.0000
  Ti  Ti1001    1.0  0.36585  0.83810  0.15582  1.0000
  Ti  Ti1002    1.0  0.10976  0.67143  0.15582  1.0000
  Ti  Ti1003    1.0  0.35366  0.73016  0.15786  1.0000
  Ti  Ti1004    1.0  0.09756  0.89683  0.15786  1.0000
  Ti  Ti1005    1.0  0.34146  0.95556  0.15990  1.0000
  Ti  Ti1006    1.0  0.08537  0.78889  0.15990  1.0000
  Ti  Ti1007    1.0  0.32927  0.84762  0.16195  1.0000
  Ti  Ti1008    1.0  0.07317  0.68095  0.16195  1.0000
  Ti  Ti1009    1.0  0.31707  0.73968  0.16399  1.0000
  Ti  Ti1010    1.0  0.06098  0.90635  0.16399  1.0000
  Ti  Ti1011    1.0  0.30488  0.96508  0.16603  1.0000
  Ti  Ti1012    1.0  0.04878  0.79841  0.16603  1.0000
  Ti  Ti1013    1.0  0.29268  0.85714  0.16807  1.0000
  Ti  Ti1014    1.0  0.03659  0.69048  0.16807  1.0000
  Ti  Ti1015    1.0  0.28049  0.74921  0.17012  1.0000
  Ti  Ti1016    1.0  0.02439  0.91587  0.17012  1.0000
  Ti  Ti1017    1.0  0.26829  0.97460  0.17216  1.0000
  Ti  Ti1018    1.0  0.01220  0.80794  0.17216  1.0000
  Ti  Ti1019    1.0  0.25610  0.86667  0.17420  1.0000
  Ti  Ti1020    1.0  0.00000  0.70000  0.17420  1.0000
  Ti  Ti1021    1.0  0.24390  0.75873  0.17624  1.0000
  Ti  Ti1022    1.0  0.50000  0.92540  0.17624  1.0000
  Ti  Ti1023    1.0  0.23171  0.98413  0.17829  1.0000
  Ti  Ti1024    1.0  0.48780  0.81746  0.17829  1.0000
  Ti  Ti1025    1.0  0.21951  0.87619  0.18033  1.0000
  Ti  Ti1026    1.0  0.47561  0.70952  0.18033  1.0000
  Ti  Ti1027    1.0  0.20732  0.76825  0.18237  1.0000
  Ti  Ti1028    1.0  0.46341  0.93492  0.18237  1.0000
  Ti  Ti1029    1.0  0.19512  0.99365  0.18441  1.0000
  Ti  Ti1030    1.0  0.45122  0.82698  0.18441  1.0000
  Ti  Ti1031    1.0  0.18293  0.88571  0.18646  1.0000
  Ti  Ti1032    1.0  0.43902  0.71905  0.18646  1.0000
  Ti  Ti1033    1.0  0.17073  0.77778  0.18850  1.0000
  Ti  Ti1034    1.0  0.42683  0.94444  0.18850  1.0000
  Ti  Ti1035    1.0  0.15854  0.66984  0.19054  1.0000
  Ti  Ti1036    1.0  0.41463  0.83651  0.19054  1.0000
  Ti  Ti1037    1.0  0.14634  0.89524  0.19259  1.0000
  Ti  Ti1038    1.0  0.40244  0.72857  0.19259  1.0000
  Ti  Ti1039    1.0  0.13415  0.78730  0.19463  1.0000
  Ti  Ti1040    1.0  0.39024  0.95397  0.19463  1.0000
  Ti  Ti1041    1.0  0.12195  0.67937  0.19667  1.0000
  Ti  Ti1042    1.0  0.37805  0.84603  0.19667  1.0000
  Ti  Ti1043    1.0  0.10976  0.90476  0.19871  1.0000
  Ti  Ti1044    1.0  0.36585  0.73810  0.19871  1.0000
  Ti  Ti1045    1.0  0.09756  0.79683  0.20076  1.0000
  Ti  Ti1046    1.0  0.35366  0.96349  0.20076  1.0000
  Ti  Ti1047    1.0  0.08537  0.68889  0.20280  1.0000
  Ti  Ti1048    1.0  0.34146  0.85556  0.20280  1.0000
  Ti  Ti1049    1.0  0.07317  0.91429  0.20484  1.0000
  Ti  Ti1050    1.0  0.32927  0.74762  0.20484  1.0000
  Ti  Ti1051    1.0  0.06098  0.80635  0.20688  1.0000
  Ti  Ti1052    1.0  0.31707  0.97302  0.20688  1.0000
  Ti  Ti1053    1.0  0.04878  0.69841  0.20893  1.0000
  Ti  Ti1054    1.0  0.30488  0.86508  0.20893  1.0000
  Ti  Ti1055    1.0  0.03659  0.92381  0.21097  1.0000
  Ti  Ti1056    1.0  0.29268  0.75714  0.21097  1.0000
  Ti  Ti1057    1.0  0.02439  0.81587  0.21301  1.0000
  Ti  Ti1058    1.0  0.28049  0.98254  0.21301  1.0000
  Ti  Ti1059    1.0  0.01220  0.70794  0.21505  1.0000
  Ti  Ti1060    1.0  0.26829  0.87460  0.21505  1.0000
  Ti  Ti1061    1.0  0.00000  0.93333  0.21710  1.0000
  Ti  Ti1062    1.0  0.25610  0.76667  0.21710  1.0000
  Ti  Ti1063    1.0  0.50000  0.82540  0.21914  1.0000
  Ti  Ti1064    1.0  0.24390  0.99206  0.21914  1.0000
  Ti  Ti1065    1.0  0.48780  0.71746  0.22118  1.0000
  Ti  Ti1066    1.0  0.23171  0.88413  0.22118  1.0000
  Ti  Ti1067    1.0  0.47561  0.94286  0.22322  1.0000
  Ti  Ti1068    1.0  0.21951  0.77619  0.22322  1.0000
  Ti  Ti1069    1.0  0.46341  0.83492  0.22527  1.0000
  Ti  Ti1070    1.0  0.20732  0.66825  0.22527  1.0000
  Ti  Ti1071    1.0  0.45122  0.72698  0.22731  1.0000
  Ti  Ti1072    1.0  0.19512  0.89365  0.22731  1.0000
  Ti  Ti1073    1.0  0.43902  0.95238  0.22935  1.0000
  Ti  Ti1074    1.0  0.18293  0.78571  0.22935  1.0000
  Ti  Ti1075    1.0  0.42683  0.84444  0.23139  1.0000
  Ti  Ti1076    1.0  0.17073  0.67778  0.23139  1.0000
  Ti  Ti1077    1.0  0.41463  0.73651  0.23344  1.0000
  Ti  Ti1078    1.0  0.15854  0.90317  0.23344  1.0000
  Ti  Ti1079    1.0  0.40244  0.96190  0.23548  1.0000
  Ti  Ti1080    1.0  0.14634  0.79524  0.23548  1.0000
  Ti  Ti1081    1.0  0.39024  0.85397  0.23752  1.0000
  Ti  Ti1082    1.0  0.13415  0.68730  0.23752  1.0000
  Ti  Ti1083    1.0  0.37805  0.74603  0.23957  1.0000
  Ti  Ti1084    1.0  0.12195  0.91270  0.23957  1.0000
  Ti  Ti1085    1.0  0.36585  0.97143  0.24161  1.0000
  Ti  Ti1086    1.0  0.10976  0.80476  0.24161  1.0000
  Ti  Ti1087    1.0  0.35366  0.86349  0.24365  1.0000
  Ti  Ti1088    1.0  0.09756  0.69683  0.24365  1.0000
  Ti  Ti1089    1.0  0.34146  0.75556  0.24569  1.0000
  Ti  Ti1090    1.0  0.08537  0.92222  0.24569  1.0000
  Ti  Ti1091    1.0  0.32927  0.98095  0.24774  1.0000
  Ti  Ti1092    1.0  0.07317  0.81429  0.24774  1.0000
  Ti  Ti1093    1.0  0.31707  0.87302  0.24978  1.0000
  Ti  Ti1094    1.0  0.06098  0.70635  0.24978  1.0000
  Ti  Ti1095    1.0  0.30488  0.76508  0.25182  1.0000
  Ti  Ti1096    1.0  0.04878  0.93175  0.25182  1.0000
  Ti  Ti1097    1.0  0.29268  0.99048  0.25386  1.0000
  Ti  Ti1098    1.0  0.03659  0.82381  0.25386  1.0000
  Ti  Ti1099    1.0  0.28049  0.88254  0.25591  1.0000
  Ti  Ti1100    1.0  0.02439  0.71587  0.25591  1.0000
  Ti  Ti1101    1.0  0.26829  0.77460  0.25795  1.0000
  Ti  Ti1102    1.0  0.01220  0.94127  0.25795  1.0000
  Ti  Ti1103    1.0  0.25610  0.00000  0.25999  1.0000
  Ti  Ti1104    1.0  0.00000  0.83333  0.25999  1.0000
  Ti  Ti1105    1.0  0.24390  0.89206  0.26203  1.0000
  Ti  Ti1106    1.0  0.50000  0.72540  0.26203  1.0000
  Ti  Ti1107    1.0  0.23171  0.78413  0.26408  1.0000
  Ti  Ti1108    1.0  0.48780  0.95079  0.26408  1.0000
  Ti  Ti1109    1.0  0.21951  0.67619  0.26612  1.0000
  Ti  Ti1110    1.0  0.47561  0.84286  0.26612  1.0000
  Ti  Ti1111    1.0  0.20732  0.90159  0.26816  1.0000
  Ti  Ti1112    1.0  0.46341  0.73492  0.26816  1.0000
  Ti  Ti1113    1.0  0.19512  0.79365  0.27020  1.0000
  Ti  Ti1114    1.0  0.45122  0.96032  0.27020  1.0000
  Ti  Ti1115    1.0  0.18293  0.68571  0.27225  1.0000
  Ti  Ti1116    1.0  0.43902  0.85238  0.27225  1.0000
  Ti  Ti1117    1.0  0.17073  0.91111  0.27429  1.0000
  Ti  Ti1118    1.0  0.42683  0.74444  0.27429  1.0000
  Ti  Ti1119    1.0  0.15854  0.80317  0.27633  1.0000
  Ti  Ti1120    1.0  0.41463  0.96984  0.27633  1.0000
  Ti  Ti1121    1.0  0.14634  0.69524  0.27838  1.0000
  Ti  Ti1122    1.0  0.40244  0.86190  0.27838  1.0000
  Ti  Ti1123    1.0  0.13415  0.92063  0.28042  1.0000
  Ti  Ti1124    1.0  0.39024  0.75397  0.28042  1.0000
  Ti  Ti1125    1.0  0.12195  0.81270  0.28246  1.0000
  Ti  Ti1126    1.0  0.37805  0.97937  0.28246  1.0000
  Ti  Ti1127    1.0  0.10976  0.70476  0.28450  1.0000
  Ti  Ti1128    1.0  0.36585  0.87143  0.28450  1.0000
  Ti  Ti1129    1.0  0.09756  0.93016  0.28655  1.0000
  Ti  Ti1130    1.0  0.35366  0.76349  0.28655  1.0000
  Ti  Ti1131    1.0  0.08537  0.82222  0.28859  1.0000
  Ti  Ti1132    1.0  0.34146  0.98889  0.28859  1.0000
  Ti  Ti1133    1.0  0.07317  0.71429  0.29063  1.0000
  Ti  Ti1134    1.0  0.32927  0.88095  0.29063  1.0000
  Ti  Ti1135    1.0  0.06098  0.93968  0.29267  1.0000
  Ti  Ti1136    1.0  0.31707  0.77302  0.29267  1.0000
  Ti  Ti1137    1.0  0.04878  0.83175  0.29472  1.0000
  Ti  Ti1138    1.0  0.30488  0.99841  0.29472  1.0000
  Ti  Ti1139    1.0  0.03659  0.72381  0.29676  1.0000
  Ti  Ti1140    1.0  0.29268  0.89048  0.29676  1.0000
  Ti  Ti1141    1.0  0.02439  0.94921  0.29880  1.0000
  Ti  Ti1142    1.0  0.28049  0.78254  0.29880  1.0000
  Ti  Ti1143    1.0  0.01220  0.84127  0.30084  1.0000
  Ti  Ti1144    1.0  0.26829  0.67460  0.30084  1.0000
  Ti  Ti1145    1.0  0.00000  0.73333  0.30289  1.0000
  Ti  Ti1146    1.0  0.25610  0.90000  0.30289  1.0000
  Ti  Ti1147    1.0  0.50000  0.95873  0.30493  1.0000
  Ti  Ti1148    1.0  0.24390  0.79206  0.30493  1.0000
  Ti  Ti1149    1.0  0.48780  0.85079  0.30697  1.0000
  Ti  Ti1150    1.0  0.23171  0.68413  0.30697  1.0000
  Ti  Ti1151    1.0  0.47561  0.74286  0.30901  1.0000
  Ti  Ti1152    1.0  0.21951  0.90952  0.30901  1.0000
  Ti  Ti1153    1.0  0.46341  0.96825  0.31106  1.0000
  Ti  Ti1154    1.0  0.20732  0.80159  0.31106  1.0000
  Ti  Ti1155    1.0  0.45122  0.86032  0.31310  1.0000
  Ti  Ti1156    1.0  0.19512  0.69365  0.31310  1.0000
  Ti  Ti1157    1.0  0.43902  0.75238  0.31514  1.0000
  Ti  Ti1158    1.0  0.18293  0.91905  0.31514  1.0000
  Ti  Ti1159    1.0  0.42683  0.97778  0.31719  1.0000
  Ti  Ti1160    1.0  0.17073  0.81111  0.31719  1.0000
  Ti  Ti1161    1.0  0.41463  0.86984  0.31923  1.0000
  Ti  Ti1162    1.0  0.15854  0.70317  0.31923  1.0000
  Ti  Ti1163    1.0  0.40244  0.76190  0.32127  1.0000
  Ti  Ti1164    1.0  0.14634  0.92857  0.32127  1.0000
  Ti  Ti1165    1.0  0.39024  0.98730  0.32331  1.0000
  Ti  Ti1166    1.0  0.13415  0.82063  0.32331  1.0000
  Ti  Ti1167    1.0  0.37805  0.87937  0.32536  1.0000
  Ti  Ti1168    1.0  0.12195  0.71270  0.32536  1.0000
  Ti  Ti1169    1.0  0.36585  0.77143  0.32740  1.0000
  Ti  Ti1170    1.0  0.10976  0.93810  0.32740  1.0000
  Ti  Ti1171    1.0  0.35366  0.99683  0.32944  1.0000
  Ti  Ti1172    1.0  0.09756  0.83016  0.32944  1.0000
  Ti  Ti1173    1.0  0.34146  0.88889  0.33148  1.0000
  Ti  Ti1174    1.0  0.08537  0.72222  0.33148  1.0000
  Ti  Ti1175    1.0  0.32927  0.78095  0.33353  1.0000
  Ti  Ti1176    1.0  0.07317  0.94762  0.33353  1.0000
  Ti  Ti1177    1.0  0.31707  0.67302  0.33557  1.0000
  Ti  Ti1178    1.0  0.06098  0.83968  0.33557  1.0000
  Ti  Ti1179    1.0  0.30488  0.89841  0.33761  1.0000
  Ti  Ti1180    1.0  0.04878  0.73175  0.33761  1.0000
  Ti  Ti1181    1.0  0.29268  0.79048  0.33965  1.0000
  Ti  Ti1182    1.0  0.03659  0.95714  0.33965  1.0000
  Ti  Ti1183    1.0  0.28049  0.68254  0.34170  1.0000
  Ti  Ti1184    1.0  0.02439  0.84921  0.34170  1.0000
  Ti  Ti1185    1.0  0.26829  0.90794  0.34374  1.0000
  Ti  Ti1186    1.0  0.01220  0.74127  0.34374  1.0000
  Ti  Ti1187    1.0  0.25610  0.80000  0.34578  1.0000
  Ti  Ti1188    1.0  0.00000  0.96667  0.34578  1.0000
  Ti  Ti1189    1.0  0.24390  0.69206  0.34782  1.0000
  Ti  Ti1190    1.0  0.50000  0.85873  0.34782  1.0000
  Ti  Ti1191    1.0  0.23171  0.91746  0.34987  1.0000
  Ti  Ti1192    1.0  0.48780  0.75079  0.34987  1.0000
  Ti  Ti1193    1.0  0.21951  0.80952  0.35191  1.0000
  Ti  Ti1194    1.0  0.47561  0.97619  0.35191  1.0000
  Ti  Ti1195    1.0  0.20732  0.70159  0.35395  1.0000
  Ti  Ti1196    1.0  0.46341  0.86825  0.35395  1.0000
  Ti  Ti1197    1.0  0.19512  0.92698  0.35600  1.0000
  Ti  Ti1198    1.0  0.45122  0.76032  0.35600  1.0000
  Ti  Ti1199    1.0  0.18293  0.81905  0.35804  1.0000
  Ti  Ti1200    1.0  0.43902  0.98571  0.35804  1.0000
  Ti  Ti1201    1.0  0.17073  0.71111  0.36008  1.0000
  Ti  Ti1202    1.0  0.42683  0.87778  0.36008  1.0000
  Ti  Ti1203    1.0  0.15854  0.93651  0.36212  1.0000
  Ti  Ti1204    1.0  0.41463  0.76984  0.36212  1.0000
  Ti  Ti1205    1.0  0.14634  0.82857  0.36417  1.0000
  Ti  Ti1206    1.0  0.40244  0.99524  0.36417  1.0000
  Ti  Ti1207    1.0  0.13415  0.72063  0.36621  1.0000
  Ti  Ti1208    1.0  0.39024  0.88730  0.36621  1.0000
  Ti  Ti1209    1.0  0.12195  0.94603  0.36825  1.0000
  Ti  Ti1210    1.0  0.37805  0.77937  0.36825  1.0000
  Ti  Ti1211    1.0  0.10976  0.83810  0.37029  1.0000
  Ti  Ti1212    1.0  0.36585  0.67143  0.37029  1.0000
  Ti  Ti1213    1.0  0.09756  0.73016  0.37234  1.0000
  Ti  Ti1214    1.0  0.35366  0.89683  0.37234  1.0000
  Ti  Ti1215    1.0  0.08537  0.95556  0.37438  1.0000
  Ti  Ti1216    1.0  0.34146  0.78889  0.37438  1.0000
  Ti  Ti1217    1.0  0.07317  0.84762  0.37642  1.0000
  Ti  Ti1218    1.0  0.32927  0.68095  0.37642  1.0000
  Ti  Ti1219    1.0  0.06098  0.73968  0.37846  1.0000
  Ti  Ti1220    1.0  0.31707  0.90635  0.37846  1.0000
  Ti  Ti1221    1.0  0.04878  0.96508  0.38051  1.0000
  Ti  Ti1222    1.0  0.30488  0.79841  0.38051  1.0000
  Ti  Ti1223    1.0  0.03659  0.85714  0.38255  1.0000
  Ti  Ti1224    1.0  0.29268  0.69048  0.38255  1.0000
  Ti  Ti1225    1.0  0.02439  0.74921  0.38459  1.0000
  Ti  Ti1226    1.0  0.28049  0.91587  0.38459  1.0000
  Ti  Ti1227    1.0  0.01220  0.97460  0.38663  1.0000
  Ti  Ti1228    1.0  0.26829  0.80794  0.38663  1.0000
  Ti  Ti1229    1.0  0.00000  0.86667  0.38868  1.0000
  Ti  Ti1230    1.0  0.25610  0.70000  0.38868  1.0000
  Ti  Ti1231    1.0  0.50000  0.75873  0.39072  1.0000
  Ti  Ti1232    1.0  0.24390  0.92540  0.39072  1.0000
  Ti  Ti1233    1.0  0.48780  0.98413  0.39276  1.0000
  Ti  Ti1234    1.0  0.23171  0.81746  0.39276  1.0000
  Ti  Ti1235    1.0  0.47561  0.87619  0.39480  1.0000
  Ti  Ti1236    1.0  0.21951  0.70952  0.39480  1.0000
  Ti  Ti1237    1.0  0.46341  0.76825  0.39685  1.0000
  Ti  Ti1238    1.0  0.20732  0.93492  0.39685  1.0000
  Ti  Ti1239    1.0  0.45122  0.99365  0.39889  1.0000
  Ti  Ti1240    1.0  0.19512  0.82698  0.39889  1.0000
  Ti  Ti1241    1.0  0.43902  0.88571  0.40093  1.0000
  Ti  Ti1242    1.0  0.18293  0.71905  0.40093  1.0000
  Ti  Ti1243    1.0  0.42683  0.77778  0.40298  1.0000
  Ti  Ti1244    1.0  0.17073  0.94444  0.40298  1.0000
  Ti  Ti1245    1.0  0.41463  0.66984  0.40502  1.0000
  Ti  Ti1246    1.0  0.15854  0.83651  0.40502  1.0000
  Ti  Ti1247    1.0  0.40244  0.89524  0.40706  1.0000
  Ti  Ti1248    1.0  0.14634  0.72857  0.40706  1.0000
  Ti  Ti1249    1.0  0.39024  0.78730  0.40910  1.0000
  Ti  Ti1250    1.0  0.13415  0.95397  0.40910  1.0000
  Ti  Ti1251    1.0  0.37805  0.67937  0.41115  1.0000
  Ti  Ti1252    1.0  0.12195  0.84603  0.41115  1.0000
  Ti  Ti1253    1.0  0.36585  0.90476  0.41319  1.0000
  Ti  Ti1254    1.0  0.10976  0.73810  0.41319  1.0000
  Ti  Ti1255    1.0  0.35366  0.79683  0.41523  1.0000
  Ti  Ti1256    1.0  0.09756  0.96349  0.41523  1.0000
  Ti  Ti1257    1.0  0.34146  0.68889  0.41727  1.0000
  Ti  Ti1258    1.0  0.08537  0.85556  0.41727  1.0000
  Ti  Ti1259    1.0  0.32927  0.91429  0.41932  1.0000
  Ti  Ti1260    1.0  0.07317  0.74762  0.41932  1.0000
  Ti  Ti1261    1.0  0.31707  0.80635  0.42136  1.0000
  Ti  Ti1262    1.0  0.06098  0.97302  0.42136  1.0000
  Ti  Ti1263    1.0  0.30488  0.69841  0.42340  1.0000
  Ti  Ti1264    1.0  0.04878  0.86508  0.42340  1.0000
  Ti  Ti1265    1.0  0.29268  0.92381  0.42544  1.0000
  Ti  Ti1266    1.0  0.03659  0.75714  0.42544  1.0000
  Ti  Ti1267    1.0  0.28049  0.81587  0.42749  1.0000
  Ti  Ti1268    1.0  0.02439  0.98254  0.42749  1.0000
  Ti  Ti1269    1.0  0.26829  0.70794  0.42953  1.0000
  Ti  Ti1270    1.0  0.01220  0.87460  0.42953  1.0000
  Ti  Ti1271    1.0  0.25610  0.93333  0.43157  1.0000
  Ti  Ti1272    1.0  0.00000  0.76667  0.43157  1.0000
  Ti  Ti1273    1.0  0.24390  0.82540  0.43361  1.0000
  Ti  Ti1274    1.0  0.50000  0.99206  0.43361  1.0000
  Ti  Ti1275    1.0  0.23171  0.71746  0.43566  1.0000
  Ti  Ti1276    1.0  0.48780  0.88413  0.43566  1.0000
  Ti  Ti1277    1.0  0.21951  0.94286  0.43770  1.0000
  Ti  Ti1278    1.0  0.47561  0.77619  0.43770  1.0000
  Ti  Ti1279    1.0  0.20732  0.83492  0.43974  1.0000
  Ti  Ti1280    1.0  0.46341  0.66825  0.43974  1.0000
  Ti  Ti1281    1.0  0.19512  0.72698  0.44179  1.0000
  Ti  Ti1282    1.0  0.45122  0.89365  0.44179  1.0000
  Ti  Ti1283    1.0  0.18293  0.95238  0.44383  1.0000
  Ti  Ti1284    1.0  0.43902  0.78571  0.44383  1.0000
  Ti  Ti1285    1.0  0.17073  0.84444  0.44587  1.0000
  Ti  Ti1286    1.0  0.42683  0.67778  0.44587  1.0000
  Ti  Ti1287    1.0  0.15854  0.73651  0.44791  1.0000
  Ti  Ti1288    1.0  0.41463  0.90317  0.44791  1.0000
  Ti  Ti1289    1.0  0.14634  0.96190  0.44996  1.0000
  Ti  Ti1290    1.0  0.40244  0.79524  0.44996  1.0000
  Ti  Ti1291    1.0  0.13415  0.85397  0.45200  1.0000
  Ti  Ti1292    1.0  0.39024  0.68730  0.45200  1.0000
  Ti  Ti1293    1.0  0.12195  0.74603  0.45404  1.0000
  Ti  Ti1294    1.0  0.37805  0.91270  0.45404  1.0000
  Ti  Ti1295    1.0  0.10976  0.97143  0.45608  1.0000
  Ti  Ti1296    1.0  0.36585  0.80476  0.45608  1.0000
  Ti  Ti1297    1.0  0.09756  0.86349  0.45813  1.0000
  Ti  Ti1298    1.0  0.35366  0.69683  0.45813  1.0000
  Ti  Ti1299    1.0  0.08537  0.75556  0.46017  1.0000
  Ti  Ti1300    1.0  0.34146  0.92222  0.46017  1.0000
  Ti  Ti1301    1.0  0.07317  0.98095  0.46221  1.0000
  Ti  Ti1302    1.0  0.32927  0.81429  0.46221  1.0000
  Ti  Ti1303    1.0  0.06098  0.87302  0.46425  1.0000
  Ti  Ti1304    1.0  0.31707  0.70635  0.46425  1.0000
  Ti  Ti1305    1.0  0.04878  0.76508  0.46630  1.0000
  Ti  Ti1306    1.0  0.30488  0.93175  0.46630  1.0000
  Ti  Ti1307    1.0  0.03659  0.99048  0.46834  1.0000
  Ti  Ti1308    1.0  0.29268  0.82381  0.46834  1.0000
  Ti  Ti1309    1.0  0.02439  0.88254  0.47038  1.0000
  Ti  Ti1310    1.0  0.28049  0.71587  0.47038  1.0000
  Ti  Ti1311    1.0  0.01220  0.77460  0.47242  1.0000
  Ti  Ti1312    1.0  0.26829  0.94127  0.47242  1.0000
  Ti  Ti1313    1.0  0.00000  1.00000  0.47447  1.0000
  Ti  Ti1314    1.0  0.25610  0.83333  0.47447  1.0000
  Ti  Ti1315    1.0  0.50000  0.89206  0.47651  1.0000
  Ti  Ti1316    1.0  0.24390  0.72540  0.47651  1.0000
  Ti  Ti1317    1.0  0.48780  0.78413  0.47855  1.0000
  Ti  Ti1318    1.0  0.23171  0.95079  0.47855  1.0000
  Ti  Ti1319    1.0  0.47561  0.67619  0.48060  1.0000
  Ti  Ti1320    1.0  0.21951  0.84286  0.48060  1.0000
  Ti  Ti1321    1.0  0.46341  0.90159  0.48264  1.0000
  Ti  Ti1322    1.0  0.20732  0.73492  0.48264  1.0000
  Ti  Ti1323    1.0  0.45122  0.79365  0.48468  1.0000
  Ti  Ti1324    1.0  0.19512  0.96032  0.48468  1.0000
  Ti  Ti1325    1.0  0.43902  0.68571  0.48672  1.0000
  Ti  Ti1326    1.0  0.18293  0.85238  0.48672  1.0000
  Ti  Ti1327    1.0  0.42683  0.91111  0.48877  1.0000
  Ti  Ti1328    1.0  0.17073  0.74444  0.48877  1.0000
  Ti  Ti1329    1.0  0.41463  0.80317  0.49081  1.0000
  Ti  Ti1330    1.0  0.15854  0.96984  0.49081  1.0000
  Ti  Ti1331    1.0  0.40244  0.69524  0.49285  1.0000
  Ti  Ti1332    1.0  0.14634  0.86190  0.49285  1.0000
  Ti  Ti1333    1.0  0.39024  0.92063  0.49489  1.0000
  Ti  Ti1334    1.0  0.13415  0.75397  0.49489  1.0000
  Ti  Ti1335    1.0  0.37805  0.81270  0.49694  1.0000
  Ti  Ti1336    1.0  0.12195  0.97937  0.49694  1.0000
  Ti  Ti1337    1.0  0.36585  0.70476  0.49898  1.0000
  Ti  Ti1338    1.0  0.10976  0.87143  0.49898  1.0000
  Ti  Ti1339    1.0  0.50000  0.00000  0.04552  1.0000
  Ti  Ti1340    1.0  0.75610  0.16667  0.04552  1.0000
  Ti  Ti1341    1.0  1.00000  0.22540  0.04756  1.0000
  Ti  Ti1342    1.0  0.74390  0.05873  0.04756  1.0000
  Ti  Ti1343    1.0  0.98780  0.11746  0.04960  1.0000
  Ti  Ti1344    1.0  0.73171  0.28413  0.04960  1.0000
  Ti  Ti1345    1.0  0.97561  0.00952  0.05164  1.0000
  Ti  Ti1346    1.0  0.71951  0.17619  0.05164  1.0000
  Ti  Ti1347    1.0  0.96341  0.23492  0.05369  1.0000
  Ti  Ti1348    1.0  0.70732  0.06825  0.05369  1.0000
  Ti  Ti1349    1.0  0.95122  0.12698  0.05573  1.0000
  Ti  Ti1350    1.0  0.69512  0.29365  0.05573  1.0000
  Ti  Ti1351    1.0  0.93902  0.01905  0.05777  1.0000
  Ti  Ti1352    1.0  0.68293  0.18571  0.05777  1.0000
  Ti  Ti1353    1.0  0.92683  0.24444  0.05981  1.0000
  Ti  Ti1354    1.0  0.67073  0.07778  0.05981  1.0000
  Ti  Ti1355    1.0  0.91463  0.13651  0.06186  1.0000
  Ti  Ti1356    1.0  0.65854  0.30317  0.06186  1.0000
  Ti  Ti1357    1.0  0.90244  0.02857  0.06390  1.0000
  Ti  Ti1358    1.0  0.64634  0.19524  0.06390  1.0000
  Ti  Ti1359    1.0  0.89024  0.25397  0.06594  1.0000
  Ti  Ti1360    1.0  0.63415  0.08730  0.06594  1.0000
  Ti  Ti1361    1.0  0.87805  0.14603  0.06799  1.0000
  Ti  Ti1362    1.0  0.62195  0.31270  0.06799  1.0000
  Ti  Ti1363    1.0  0.86585  0.03810  0.07003  1.0000
  Ti  Ti1364    1.0  0.60976  0.20476  0.07003  1.0000
  Ti  Ti1365    1.0  0.85366  0.26349  0.07207  1.0000
  Ti  Ti1366    1.0  0.59756  0.09683  0.07207  1.0000
  Ti  Ti1367    1.0  0.84146  0.15556  0.07411  1.0000
  Ti  Ti1368    1.0  0.58537  0.32222  0.07411  1.0000
  Ti  Ti1369    1.0  0.82927  0.04762  0.07616  1.0000
  Ti  Ti1370    1.0  0.57317  0.21429  0.07616  1.0000
  Ti  Ti1371    1.0  0.81707  0.27302  0.07820  1.0000
  Ti  Ti1372    1.0  0.56098  0.10635  0.07820  1.0000
  Ti  Ti1373    1.0  0.80488  0.16508  0.08024  1.0000
  Ti  Ti1374    1.0  0.54878  0.33175  0.08024  1.0000
  Ti  Ti1375    1.0  0.79268  0.05714  0.08228  1.0000
  Ti  Ti1376    1.0  0.53659  0.22381  0.08228  1.0000
  Ti  Ti1377    1.0  0.78049  0.28254  0.08433  1.0000
  Ti  Ti1378    1.0  0.52439  0.11587  0.08433  1.0000
  Ti  Ti1379    1.0  0.76829  0.17460  0.08637  1.0000
  Ti  Ti1380    1.0  0.51220  0.00794  0.08637  1.0000
  Ti  Ti1381    1.0  0.75610  0.06667  0.08841  1.0000
  Ti  Ti1382    1.0  0.50000  0.23333  0.08841  1.0000
  Ti  Ti1383    1.0  0.74390  0.29206  0.09045  1.0000
  Ti  Ti1384    1.0  1.00000  0.12540  0.09045  1.0000
  Ti  Ti1385    1.0  0.73171  0.18413  0.09250  1.0000
  Ti  Ti1386    1.0  0.98780  0.01746  0.09250  1.0000
  Ti  Ti1387    1.0  0.71951  0.07619  0.09454  1.0000
  Ti  Ti1388    1.0  0.97561  0.24286  0.09454  1.0000
  Ti  Ti1389    1.0  0.70732  0.30159  0.09658  1.0000
  Ti  Ti1390    1.0  0.96341  0.13492  0.09658  1.0000
  Ti  Ti1391    1.0  0.69512  0.19365  0.09862  1.0000
  Ti  Ti1392    1.0  0.95122  0.02698  0.09862  1.0000
  Ti  Ti1393    1.0  0.68293  0.08571  0.10067  1.0000
  Ti  Ti1394    1.0  0.93902  0.25238  0.10067  1.0000
  Ti  Ti1395    1.0  0.67073  0.31111  0.10271  1.0000
  Ti  Ti1396    1.0  0.92683  0.14444  0.10271  1.0000
  Ti  Ti1397    1.0  0.65854  0.20317  0.10475  1.0000
  Ti  Ti1398    1.0  0.91463  0.03651  0.10475  1.0000
  Ti  Ti1399    1.0  0.64634  0.09524  0.10679  1.0000
  Ti  Ti1400    1.0  0.90244  0.26190  0.10679  1.0000
  Ti  Ti1401    1.0  0.63415  0.32063  0.10884  1.0000
  Ti  Ti1402    1.0  0.89024  0.15397  0.10884  1.0000
  Ti  Ti1403    1.0  0.62195  0.21270  0.11088  1.0000
  Ti  Ti1404    1.0  0.87805  0.04603  0.11088  1.0000
  Ti  Ti1405    1.0  0.60976  0.10476  0.11292  1.0000
  Ti  Ti1406    1.0  0.86585  0.27143  0.11292  1.0000
  Ti  Ti1407    1.0  0.59756  0.33016  0.11497  1.0000
  Ti  Ti1408    1.0  0.85366  0.16349  0.11497  1.0000
  Ti  Ti1409    1.0  0.58537  0.22222  0.11701  1.0000
  Ti  Ti1410    1.0  0.84146  0.05556  0.11701  1.0000
  Ti  Ti1411    1.0  0.57317  0.11429  0.11905  1.0000
  Ti  Ti1412    1.0  0.82927  0.28095  0.11905  1.0000
  Ti  Ti1413    1.0  0.56098  0.00635  0.12109  1.0000
  Ti  Ti1414    1.0  0.81707  0.17302  0.12109  1.0000
  Ti  Ti1415    1.0  0.54878  0.23175  0.12314  1.0000
  Ti  Ti1416    1.0  0.80488  0.06508  0.12314  1.0000
  Ti  Ti1417    1.0  0.53659  0.12381  0.12518  1.0000
  Ti  Ti1418    1.0  0.79268  0.29048  0.12518  1.0000
  Ti  Ti1419    1.0  0.52439  0.01587  0.12722  1.0000
  Ti  Ti1420    1.0  0.78049  0.18254  0.12722  1.0000
  Ti  Ti1421    1.0  0.51220  0.24127  0.12926  1.0000
  Ti  Ti1422    1.0  0.76829  0.07460  0.12926  1.0000
  Ti  Ti1423    1.0  0.50000  0.13333  0.13131  1.0000
  Ti  Ti1424    1.0  0.75610  0.30000  0.13131  1.0000
  Ti  Ti1425    1.0  1.00000  0.02540  0.13335  1.0000
  Ti  Ti1426    1.0  0.74390  0.19206  0.13335  1.0000
  Ti  Ti1427    1.0  0.98780  0.25079  0.13539  1.0000
  Ti  Ti1428    1.0  0.73171  0.08413  0.13539  1.0000
  Ti  Ti1429    1.0  0.97561  0.14286  0.13743  1.0000
  Ti  Ti1430    1.0  0.71951  0.30952  0.13743  1.0000
  Ti  Ti1431    1.0  0.96341  0.03492  0.13948  1.0000
  Ti  Ti1432    1.0  0.70732  0.20159  0.13948  1.0000
  Ti  Ti1433    1.0  0.95122  0.26032  0.14152  1.0000
  Ti  Ti1434    1.0  0.69512  0.09365  0.14152  1.0000
  Ti  Ti1435    1.0  0.93902  0.15238  0.14356  1.0000
  Ti  Ti1436    1.0  0.68293  0.31905  0.14356  1.0000
  Ti  Ti1437    1.0  0.92683  0.04444  0.14560  1.0000
  Ti  Ti1438    1.0  0.67073  0.21111  0.14560  1.0000
  Ti  Ti1439    1.0  0.91463  0.26984  0.14765  1.0000
  Ti  Ti1440    1.0  0.65854  0.10317  0.14765  1.0000
  Ti  Ti1441    1.0  0.90244  0.16190  0.14969  1.0000
  Ti  Ti1442    1.0  0.64634  0.32857  0.14969  1.0000
  Ti  Ti1443    1.0  0.89024  0.05397  0.15173  1.0000
  Ti  Ti1444    1.0  0.63415  0.22063  0.15173  1.0000
  Ti  Ti1445    1.0  0.87805  0.27937  0.15378  1.0000
  Ti  Ti1446    1.0  0.62195  0.11270  0.15378  1.0000
  Ti  Ti1447    1.0  0.86585  0.17143  0.15582  1.0000
  Ti  Ti1448    1.0  0.60976  0.00476  0.15582  1.0000
  Ti  Ti1449    1.0  0.85366  0.06349  0.15786  1.0000
  Ti  Ti1450    1.0  0.59756  0.23016  0.15786  1.0000
  Ti  Ti1451    1.0  0.84146  0.28889  0.15990  1.0000
  Ti  Ti1452    1.0  0.58537  0.12222  0.15990  1.0000
  Ti  Ti1453    1.0  0.82927  0.18095  0.16195  1.0000
  Ti  Ti1454    1.0  0.57317  0.01429  0.16195  1.0000
  Ti  Ti1455    1.0  0.81707  0.07302  0.16399  1.0000
  Ti  Ti1456    1.0  0.56098  0.23968  0.16399  1.0000
  Ti  Ti1457    1.0  0.80488  0.29841  0.16603  1.0000
  Ti  Ti1458    1.0  0.54878  0.13175  0.16603  1.0000
  Ti  Ti1459    1.0  0.79268  0.19048  0.16807  1.0000
  Ti  Ti1460    1.0  0.53659  0.02381  0.16807  1.0000
  Ti  Ti1461    1.0  0.78049  0.08254  0.17012  1.0000
  Ti  Ti1462    1.0  0.52439  0.24921  0.17012  1.0000
  Ti  Ti1463    1.0  0.76829  0.30794  0.17216  1.0000
  Ti  Ti1464    1.0  0.51220  0.14127  0.17216  1.0000
  Ti  Ti1465    1.0  0.75610  0.20000  0.17420  1.0000
  Ti  Ti1466    1.0  0.50000  0.03333  0.17420  1.0000
  Ti  Ti1467    1.0  0.74390  0.09206  0.17624  1.0000
  Ti  Ti1468    1.0  1.00000  0.25873  0.17624  1.0000
  Ti  Ti1469    1.0  0.73171  0.31746  0.17829  1.0000
  Ti  Ti1470    1.0  0.98780  0.15079  0.17829  1.0000
  Ti  Ti1471    1.0  0.71951  0.20952  0.18033  1.0000
  Ti  Ti1472    1.0  0.97561  0.04286  0.18033  1.0000
  Ti  Ti1473    1.0  0.70732  0.10159  0.18237  1.0000
  Ti  Ti1474    1.0  0.96341  0.26825  0.18237  1.0000
  Ti  Ti1475    1.0  0.69512  0.32698  0.18441  1.0000
  Ti  Ti1476    1.0  0.95122  0.16032  0.18441  1.0000
  Ti  Ti1477    1.0  0.68293  0.21905  0.18646  1.0000
  Ti  Ti1478    1.0  0.93902  0.05238  0.18646  1.0000
  Ti  Ti1479    1.0  0.67073  0.11111  0.18850  1.0000
  Ti  Ti1480    1.0  0.92683  0.27778  0.18850  1.0000
  Ti  Ti1481    1.0  0.65854  0.00317  0.19054  1.0000
  Ti  Ti1482    1.0  0.91463  0.16984  0.19054  1.0000
  Ti  Ti1483    1.0  0.64634  0.22857  0.19259  1.0000
  Ti  Ti1484    1.0  0.90244  0.06190  0.19259  1.0000
  Ti  Ti1485    1.0  0.63415  0.12063  0.19463  1.0000
  Ti  Ti1486    1.0  0.89024  0.28730  0.19463  1.0000
  Ti  Ti1487    1.0  0.62195  0.01270  0.19667  1.0000
  Ti  Ti1488    1.0  0.87805  0.17937  0.19667  1.0000
  Ti  Ti1489    1.0  0.60976  0.23810  0.19871  1.0000
  Ti  Ti1490    1.0  0.86585  0.07143  0.19871  1.0000
  Ti  Ti1491    1.0  0.59756  0.13016  0.20076  1.0000
  Ti  Ti1492    1.0  0.85366  0.29683  0.20076  1.0000
  Ti  Ti1493    1.0  0.58537  0.02222  0.20280  1.0000
  Ti  Ti1494    1.0  0.84146  0.18889  0.20280  1.0000
  Ti  Ti1495    1.0  0.57317  0.24762  0.20484  1.0000
  Ti  Ti1496    1.0  0.82927  0.08095  0.20484  1.0000
  Ti  Ti1497    1.0  0.56098  0.13968  0.20688  1.0000
  Ti  Ti1498    1.0  0.81707  0.30635  0.20688  1.0000
  Ti  Ti1499    1.0  0.54878  0.03175  0.20893  1.0000
  Ti  Ti1500    1.0  0.80488  0.19841  0.20893  1.0000
  Ti  Ti1501    1.0  0.53659  0.25714  0.21097  1.0000
  Ti  Ti1502    1.0  0.79268  0.09048  0.21097  1.0000
  Ti  Ti1503    1.0  0.52439  0.14921  0.21301  1.0000
  Ti  Ti1504    1.0  0.78049  0.31587  0.21301  1.0000
  Ti  Ti1505    1.0  0.51220  0.04127  0.21505  1.0000
  Ti  Ti1506    1.0  0.76829  0.20794  0.21505  1.0000
  Ti  Ti1507    1.0  0.50000  0.26667  0.21710  1.0000
  Ti  Ti1508    1.0  0.75610  0.10000  0.21710  1.0000
  Ti  Ti1509    1.0  1.00000  0.15873  0.21914  1.0000
  Ti  Ti1510    1.0  0.74390  0.32540  0.21914  1.0000
  Ti  Ti1511    1.0  0.98780  0.05079  0.22118  1.0000
  Ti  Ti1512    1.0  0.73171  0.21746  0.22118  1.0000
  Ti  Ti1513    1.0  0.97561  0.27619  0.22322  1.0000
  Ti  Ti1514    1.0  0.71951  0.10952  0.22322  1.0000
  Ti  Ti1515    1.0  0.96341  0.16825  0.22527  1.0000
  Ti  Ti1516    1.0  0.70732  0.00159  0.22527  1.0000
  Ti  Ti1517    1.0  0.95122  0.06032  0.22731  1.0000
  Ti  Ti1518    1.0  0.69512  0.22698  0.22731  1.0000
  Ti  Ti1519    1.0  0.93902  0.28571  0.22935  1.0000
  Ti  Ti1520    1.0  0.68293  0.11905  0.22935  1.0000
  Ti  Ti1521    1.0  0.92683  0.17778  0.23139  1.0000
  Ti  Ti1522    1.0  0.67073  0.01111  0.23139  1.0000
  Ti  Ti1523    1.0  0.91463  0.06984  0.23344  1.0000
  Ti  Ti1524    1.0  0.65854  0.23651  0.23344  1.0000
  Ti  Ti1525    1.0  0.90244  0.29524  0.23548  1.0000
  Ti  Ti1526    1.0  0.64634  0.12857  0.23548  1.0000
  Ti  Ti1527    1.0  0.89024  0.18730  0.23752  1.0000
  Ti  Ti1528    1.0  0.63415  0.02063  0.23752  1.0000
  Ti  Ti1529    1.0  0.87805  0.07937  0.23957  1.0000
  Ti  Ti1530    1.0  0.62195  0.24603  0.23957  1.0000
  Ti  Ti1531    1.0  0.86585  0.30476  0.24161  1.0000
  Ti  Ti1532    1.0  0.60976  0.13810  0.24161  1.0000
  Ti  Ti1533    1.0  0.85366  0.19683  0.24365  1.0000
  Ti  Ti1534    1.0  0.59756  0.03016  0.24365  1.0000
  Ti  Ti1535    1.0  0.84146  0.08889  0.24569  1.0000
  Ti  Ti1536    1.0  0.58537  0.25556  0.24569  1.0000
  Ti  Ti1537    1.0  0.82927  0.31429  0.24774  1.0000
  Ti  Ti1538    1.0  0.57317  0.14762  0.24774  1.0000
  Ti  Ti1539    1.0  0.81707  0.20635  0.24978  1.0000
  Ti  Ti1540    1.0  0.56098  0.03968  0.24978  1.0000
  Ti  Ti1541    1.0  0.80488  0.09841  0.25182  1.0000
  Ti  Ti1542    1.0  0.54878  0.26508  0.25182  1.0000
  Ti  Ti1543    1.0  0.79268  0.32381  0.25386  1.0000
  Ti  Ti1544    1.0  0.53659  0.15714  0.25386  1.0000
  Ti  Ti1545    1.0  0.78049  0.21587  0.25591  1.0000
  Ti  Ti1546    1.0  0.52439  0.04921  0.25591  1.0000
  Ti  Ti1547    1.0  0.76829  0.10794  0.25795  1.0000
  Ti  Ti1548    1.0  0.51220  0.27460  0.25795  1.0000
  Ti  Ti1549    1.0  0.75610  0.33333  0.25999  1.0000
  Ti  Ti1550    1.0  0.50000  0.16667  0.25999  1.0000
  Ti  Ti1551    1.0  0.74390  0.22540  0.26203  1.0000
  Ti  Ti1552    1.0  1.00000  0.05873  0.26203  1.0000
  Ti  Ti1553    1.0  0.73171  0.11746  0.26408  1.0000
  Ti  Ti1554    1.0  0.98780  0.28413  0.26408  1.0000
  Ti  Ti1555    1.0  0.71951  0.00952  0.26612  1.0000
  Ti  Ti1556    1.0  0.97561  0.17619  0.26612  1.0000
  Ti  Ti1557    1.0  0.70732  0.23492  0.26816  1.0000
  Ti  Ti1558    1.0  0.96341  0.06825  0.26816  1.0000
  Ti  Ti1559    1.0  0.69512  0.12698  0.27020  1.0000
  Ti  Ti1560    1.0  0.95122  0.29365  0.27020  1.0000
  Ti  Ti1561    1.0  0.68293  0.01905  0.27225  1.0000
  Ti  Ti1562    1.0  0.93902  0.18571  0.27225  1.0000
  Ti  Ti1563    1.0  0.67073  0.24444  0.27429  1.0000
  Ti  Ti1564    1.0  0.92683  0.07778  0.27429  1.0000
  Ti  Ti1565    1.0  0.65854  0.13651  0.27633  1.0000
  Ti  Ti1566    1.0  0.91463  0.30317  0.27633  1.0000
  Ti  Ti1567    1.0  0.64634  0.02857  0.27838  1.0000
  Ti  Ti1568    1.0  0.90244  0.19524  0.27838  1.0000
  Ti  Ti1569    1.0  0.63415  0.25397  0.28042  1.0000
  Ti  Ti1570    1.0  0.89024  0.08730  0.28042  1.0000
  Ti  Ti1571    1.0  0.62195  0.14603  0.28246  1.0000
  Ti  Ti1572    1.0  0.87805  0.31270  0.28246  1.0000
  Ti  Ti1573    1.0  0.60976  0.03810  0.28450  1.0000
  Ti  Ti1574    1.0  0.86585  0.20476  0.28450  1.0000
  Ti  Ti1575    1.0  0.59756  0.26349  0.28655  1.0000
  Ti  Ti1576    1.0  0.85366  0.09683  0.28655  1.0000
  Ti  Ti1577    1.0  0.58537  0.15556  0.28859  1.0000
  Ti  Ti1578    1.0  0.84146  0.32222  0.28859  1.0000
  Ti  Ti1579    1.0  0.57317  0.04762  0.29063  1.0000
  Ti  Ti1580    1.0  0.82927  0.21429  0.29063  1.0000
  Ti  Ti1581    1.0  0.56098  0.27302  0.29267  1.0000
  Ti  Ti1582    1.0  0.81707  0.10635  0.29267  1.0000
  Ti  Ti1583    1.0  0.54878  0.16508  0.29472  1.0000
  Ti  Ti1584    1.0  0.80488  0.33175  0.29472  1.0000
  Ti  Ti1585    1.0  0.53659  0.05714  0.29676  1.0000
  Ti  Ti1586    1.0  0.79268  0.22381  0.29676  1.0000
  Ti  Ti1587    1.0  0.52439  0.28254  0.29880  1.0000
  Ti  Ti1588    1.0  0.78049  0.11587  0.29880  1.0000
  Ti  Ti1589    1.0  0.51220  0.17460  0.30084  1.0000
  Ti  Ti1590    1.0  0.76829  0.00794  0.30084  1.0000
  Ti  Ti1591    1.0  0.50000  0.06667  0.30289  1.0000
  Ti  Ti1592    1.0  0.75610  0.23333  0.30289  1.0000
  Ti  Ti1593    1.0  1.00000  0.29206  0.30493  1.0000
  Ti  Ti1594    1.0  0.74390  0.12540  0.30493  1.0000
  Ti  Ti1595    1.0  0.98780  0.18413  0.30697  1.0000
  Ti  Ti1596    1.0  0.73171  0.01746  0.30697  1.0000
  Ti  Ti1597    1.0  0.97561  0.07619  0.30901  1.0000
  Ti  Ti1598    1.0  0.71951  0.24286  0.30901  1.0000
  Ti  Ti1599    1.0  0.96341  0.30159  0.31106  1.0000
  Ti  Ti1600    1.0  0.70732  0.13492  0.31106  1.0000
  Ti  Ti1601    1.0  0.95122  0.19365  0.31310  1.0000
  Ti  Ti1602    1.0  0.69512  0.02698  0.31310  1.0000
  Ti  Ti1603    1.0  0.93902  0.08571  0.31514  1.0000
  Ti  Ti1604    1.0  0.68293  0.25238  0.31514  1.0000
  Ti  Ti1605    1.0  0.92683  0.31111  0.31719  1.0000
  Ti  Ti1606    1.0  0.67073  0.14444  0.31719  1.0000
  Ti  Ti1607    1.0  0.91463  0.20317  0.31923  1.0000
  Ti  Ti1608    1.0  0.65854  0.03651  0.31923  1.0000
  Ti  Ti1609    1.0  0.90244  0.09524  0.32127  1.0000
  Ti  Ti1610    1.0  0.64634  0.26190  0.32127  1.0000
  Ti  Ti1611    1.0  0.89024  0.32063  0.32331  1.0000
  Ti  Ti1612    1.0  0.63415  0.15397  0.32331  1.0000
  Ti  Ti1613    1.0  0.87805  0.21270  0.32536  1.0000
  Ti  Ti1614    1.0  0.62195  0.04603  0.32536  1.0000
  Ti  Ti1615    1.0  0.86585  0.10476  0.32740  1.0000
  Ti  Ti1616    1.0  0.60976  0.27143  0.32740  1.0000
  Ti  Ti1617    1.0  0.85366  0.33016  0.32944  1.0000
  Ti  Ti1618    1.0  0.59756  0.16349  0.32944  1.0000
  Ti  Ti1619    1.0  0.84146  0.22222  0.33148  1.0000
  Ti  Ti1620    1.0  0.58537  0.05556  0.33148  1.0000
  Ti  Ti1621    1.0  0.82927  0.11429  0.33353  1.0000
  Ti  Ti1622    1.0  0.57317  0.28095  0.33353  1.0000
  Ti  Ti1623    1.0  0.81707  0.00635  0.33557  1.0000
  Ti  Ti1624    1.0  0.56098  0.17302  0.33557  1.0000
  Ti  Ti1625    1.0  0.80488  0.23175  0.33761  1.0000
  Ti  Ti1626    1.0  0.54878  0.06508  0.33761  1.0000
  Ti  Ti1627    1.0  0.79268  0.12381  0.33965  1.0000
  Ti  Ti1628    1.0  0.53659  0.29048  0.33965  1.0000
  Ti  Ti1629    1.0  0.78049  0.01587  0.34170  1.0000
  Ti  Ti1630    1.0  0.52439  0.18254  0.34170  1.0000
  Ti  Ti1631    1.0  0.76829  0.24127  0.34374  1.0000
  Ti  Ti1632    1.0  0.51220  0.07460  0.34374  1.0000
  Ti  Ti1633    1.0  0.75610  0.13333  0.34578  1.0000
  Ti  Ti1634    1.0  0.50000  0.30000  0.34578  1.0000
  Ti  Ti1635    1.0  0.74390  0.02540  0.34782  1.0000
  Ti  Ti1636    1.0  1.00000  0.19206  0.34782  1.0000
  Ti  Ti1637    1.0  0.73171  0.25079  0.34987  1.0000
  Ti  Ti1638    1.0  0.98780  0.08413  0.34987  1.0000
  Ti  Ti1639    1.0  0.71951  0.14286  0.35191  1.0000
  Ti  Ti1640    1.0  0.97561  0.30952  0.35191  1.0000
  Ti  Ti1641    1.0  0.70732  0.03492  0.35395  1.0000
  Ti  Ti1642    1.0  0.96341  0.20159  0.35395  1.0000
  Ti  Ti1643    1.0  0.69512  0.26032  0.35600  1.0000
  Ti  Ti1644    1.0  0.95122  0.09365  0.35600  1.0000
  Ti  Ti1645    1.0  0.68293  0.15238  0.35804  1.0000
  Ti  Ti1646    1.0  0.93902  0.31905  0.35804  1.0000
  Ti  Ti1647    1.0  0.67073  0.04444  0.36008  1.0000
  Ti  Ti1648    1.0  0.92683  0.21111  0.36008  1.0000
  Ti  Ti1649    1.0  0.65854  0.26984  0.36212  1.0000
  Ti  Ti1650    1.0  0.91463  0.10317  0.36212  1.0000
  Ti  Ti1651    1.0  0.64634  0.16190  0.36417  1.0000
  Ti  Ti1652    1.0  0.90244  0.32857  0.36417  1.0000
  Ti  Ti1653    1.0  0.63415  0.05397  0.36621  1.0000
  Ti  Ti1654    1.0  0.89024  0.22063  0.36621  1.0000
  Ti  Ti1655    1.0  0.62195  0.27937  0.36825  1.0000
  Ti  Ti1656    1.0  0.87805  0.11270  0.36825  1.0000
  Ti  Ti1657    1.0  0.60976  0.17143  0.37029  1.0000
  Ti  Ti1658    1.0  0.86585  0.00476  0.37029  1.0000
  Ti  Ti1659    1.0  0.59756  0.06349  0.37234  1.0000
  Ti  Ti1660    1.0  0.85366  0.23016  0.37234  1.0000
  Ti  Ti1661    1.0  0.58537  0.28889  0.37438  1.0000
  Ti  Ti1662    1.0  0.84146  0.12222  0.37438  1.0000
  Ti  Ti1663    1.0  0.57317  0.18095  0.37642  1.0000
  Ti  Ti1664    1.0  0.82927  0.01429  0.37642  1.0000
  Ti  Ti1665    1.0  0.56098  0.07302  0.37846  1.0000
  Ti  Ti1666    1.0  0.81707  0.23968  0.37846  1.0000
  Ti  Ti1667    1.0  0.54878  0.29841  0.38051  1.0000
  Ti  Ti1668    1.0  0.80488  0.13175  0.38051  1.0000
  Ti  Ti1669    1.0  0.53659  0.19048  0.38255  1.0000
  Ti  Ti1670    1.0  0.79268  0.02381  0.38255  1.0000
  Ti  Ti1671    1.0  0.52439  0.08254  0.38459  1.0000
  Ti  Ti1672    1.0  0.78049  0.24921  0.38459  1.0000
  Ti  Ti1673    1.0  0.51220  0.30794  0.38663  1.0000
  Ti  Ti1674    1.0  0.76829  0.14127  0.38663  1.0000
  Ti  Ti1675    1.0  0.50000  0.20000  0.38868  1.0000
  Ti  Ti1676    1.0  0.75610  0.03333  0.38868  1.0000
  Ti  Ti1677    1.0  0.00000  0.09206  0.39072  1.0000
  Ti  Ti1678    1.0  0.74390  0.25873  0.39072  1.0000
  Ti  Ti1679    1.0  0.98780  0.31746  0.39276  1.0000
  Ti  Ti1680    1.0  0.73171  0.15079  0.39276  1.0000
  Ti  Ti1681    1.0  0.97561  0.20952  0.39480  1.0000
  Ti  Ti1682    1.0  0.71951  0.04286  0.39480  1.0000
  Ti  Ti1683    1.0  0.96341  0.10159  0.39685  1.0000
  Ti  Ti1684    1.0  0.70732  0.26825  0.39685  1.0000
  Ti  Ti1685    1.0  0.95122  0.32698  0.39889  1.0000
  Ti  Ti1686    1.0  0.69512  0.16032  0.39889  1.0000
  Ti  Ti1687    1.0  0.93902  0.21905  0.40093  1.0000
  Ti  Ti1688    1.0  0.68293  0.05238  0.40093  1.0000
  Ti  Ti1689    1.0  0.92683  0.11111  0.40298  1.0000
  Ti  Ti1690    1.0  0.67073  0.27778  0.40298  1.0000
  Ti  Ti1691    1.0  0.91463  0.00317  0.40502  1.0000
  Ti  Ti1692    1.0  0.65854  0.16984  0.40502  1.0000
  Ti  Ti1693    1.0  0.90244  0.22857  0.40706  1.0000
  Ti  Ti1694    1.0  0.64634  0.06190  0.40706  1.0000
  Ti  Ti1695    1.0  0.89024  0.12063  0.40910  1.0000
  Ti  Ti1696    1.0  0.63415  0.28730  0.40910  1.0000
  Ti  Ti1697    1.0  0.87805  0.01270  0.41115  1.0000
  Ti  Ti1698    1.0  0.62195  0.17937  0.41115  1.0000
  Ti  Ti1699    1.0  0.86585  0.23810  0.41319  1.0000
  Ti  Ti1700    1.0  0.60976  0.07143  0.41319  1.0000
  Ti  Ti1701    1.0  0.85366  0.13016  0.41523  1.0000
  Ti  Ti1702    1.0  0.59756  0.29683  0.41523  1.0000
  Ti  Ti1703    1.0  0.84146  0.02222  0.41727  1.0000
  Ti  Ti1704    1.0  0.58537  0.18889  0.41727  1.0000
  Ti  Ti1705    1.0  0.82927  0.24762  0.41932  1.0000
  Ti  Ti1706    1.0  0.57317  0.08095  0.41932  1.0000
  Ti  Ti1707    1.0  0.81707  0.13968  0.42136  1.0000
  Ti  Ti1708    1.0  0.56098  0.30635  0.42136  1.0000
  Ti  Ti1709    1.0  0.80488  0.03175  0.42340  1.0000
  Ti  Ti1710    1.0  0.54878  0.19841  0.42340  1.0000
  Ti  Ti1711    1.0  0.79268  0.25714  0.42544  1.0000
  Ti  Ti1712    1.0  0.53659  0.09048  0.42544  1.0000
  Ti  Ti1713    1.0  0.78049  0.14921  0.42749  1.0000
  Ti  Ti1714    1.0  0.52439  0.31587  0.42749  1.0000
  Ti  Ti1715    1.0  0.76829  0.04127  0.42953  1.0000
  Ti  Ti1716    1.0  0.51220  0.20794  0.42953  1.0000
  Ti  Ti1717    1.0  0.75610  0.26667  0.43157  1.0000
  Ti  Ti1718    1.0  0.50000  0.10000  0.43157  1.0000
  Ti  Ti1719    1.0  0.74390  0.15873  0.43361  1.0000
  Ti  Ti1720    1.0  1.00000  0.32540  0.43361  1.0000
  Ti  Ti1721    1.0  0.73171  0.05079  0.43566  1.0000
  Ti  Ti1722    1.0  0.98780  0.21746  0.43566  1.0000
  Ti  Ti1723    1.0  0.71951  0.27619  0.43770  1.0000
  Ti  Ti1724    1.0  0.97561  0.10952  0.43770  1.0000
  Ti  Ti1725    1.0  0.70732  0.16825  0.43974  1.0000
  Ti  Ti1726    1.0  0.96341  0.00159  0.43974  1.0000
  Ti  Ti1727    1.0  0.69512  0.06032  0.44179  1.0000
  Ti  Ti1728    1.0  0.95122  0.22698  0.44179  1.0000
  Ti  Ti1729    1.0  0.68293  0.28571  0.44383  1.0000
  Ti  Ti1730    1.0  0.93902  0.11905  0.44383  1.0000
  Ti  Ti1731    1.0  0.67073  0.17778  0.44587  1.0000
  Ti  Ti1732    1.0  0.92683  0.01111  0.44587  1.0000
  Ti  Ti1733    1.0  0.65854  0.06984  0.44791  1.0000
  Ti  Ti1734    1.0  0.91463  0.23651  0.44791  1.0000
  Ti  Ti1735    1.0  0.64634  0.29524  0.44996  1.0000
  Ti  Ti1736    1.0  0.90244  0.12857  0.44996  1.0000
  Ti  Ti1737    1.0  0.63415  0.18730  0.45200  1.0000
  Ti  Ti1738    1.0  0.89024  0.02063  0.45200  1.0000
  Ti  Ti1739    1.0  0.62195  0.07937  0.45404  1.0000
  Ti  Ti1740    1.0  0.87805  0.24603  0.45404  1.0000
  Ti  Ti1741    1.0  0.60976  0.30476  0.45608  1.0000
  Ti  Ti1742    1.0  0.86585  0.13810  0.45608  1.0000
  Ti  Ti1743    1.0  0.59756  0.19683  0.45813  1.0000
  Ti  Ti1744    1.0  0.85366  0.03016  0.45813  1.0000
  Ti  Ti1745    1.0  0.58537  0.08889  0.46017  1.0000
  Ti  Ti1746    1.0  0.84146  0.25556  0.46017  1.0000
  Ti  Ti1747    1.0  0.57317  0.31429  0.46221  1.0000
  Ti  Ti1748    1.0  0.82927  0.14762  0.46221  1.0000
  Ti  Ti1749    1.0  0.56098  0.20635  0.46425  1.0000
  Ti  Ti1750    1.0  0.81707  0.03968  0.46425  1.0000
  Ti  Ti1751    1.0  0.54878  0.09841  0.46630  1.0000
  Ti  Ti1752    1.0  0.80488  0.26508  0.46630  1.0000
  Ti  Ti1753    1.0  0.53659  0.32381  0.46834  1.0000
  Ti  Ti1754    1.0  0.79268  0.15714  0.46834  1.0000
  Ti  Ti1755    1.0  0.52439  0.21587  0.47038  1.0000
  Ti  Ti1756    1.0  0.78049  0.04921  0.47038  1.0000
  Ti  Ti1757    1.0  0.51220  0.10794  0.47242  1.0000
  Ti  Ti1758    1.0  0.76829  0.27460  0.47242  1.0000
  Ti  Ti1759    1.0  0.50000  0.33333  0.47447  1.0000
  Ti  Ti1760    1.0  0.75610  0.16667  0.47447  1.0000
  Ti  Ti1761    1.0  1.00000  0.22540  0.47651  1.0000
  Ti  Ti1762    1.0  0.74390  0.05873  0.47651  1.0000
  Ti  Ti1763    1.0  0.98780  0.11746  0.47855  1.0000
  Ti  Ti1764    1.0  0.73171  0.28413  0.47855  1.0000
  Ti  Ti1765    1.0  0.97561  0.00952  0.48060  1.0000
  Ti  Ti1766    1.0  0.71951  0.17619  0.48060  1.0000
  Ti  Ti1767    1.0  0.96341  0.23492  0.48264  1.0000
  Ti  Ti1768    1.0  0.70732  0.06825  0.48264  1.0000
  Ti  Ti1769    1.0  0.95122  0.12698  0.48468  1.0000
  Ti  Ti1770    1.0  0.69512  0.29365  0.48468  1.0000
  Ti  Ti1771    1.0  0.93902  0.01905  0.48672  1.0000
  Ti  Ti1772    1.0  0.68293  0.18571  0.48672  1.0000
  Ti  Ti1773    1.0  0.92683  0.24444  0.48877  1.0000
  Ti  Ti1774    1.0  0.67073  0.07778  0.48877  1.0000
  Ti  Ti1775    1.0  0.91463  0.13651  0.49081  1.0000
  Ti  Ti1776    1.0  0.65854  0.30317  0.49081  1.0000
  Ti  Ti1777    1.0  0.90244  0.02857  0.49285  1.0000
  Ti  Ti1778    1.0  0.64634  0.19524  0.49285  1.0000
  Ti  Ti1779    1.0  0.89024  0.25397  0.49489  1.0000
  Ti  Ti1780    1.0  0.63415  0.08730  0.49489  1.0000
  Ti  Ti1781    1.0  0.87805  0.14603  0.49694  1.0000
  Ti  Ti1782    1.0  0.62195  0.31270  0.49694  1.0000
  Ti  Ti1783    1.0  0.86585  0.03810  0.49898  1.0000
  Ti  Ti1784    1.0  0.60976  0.20476  0.49898  1.0000
  Ti  Ti1785    1.0  0.50000  0.33333  0.04552  1.0000
  Ti  Ti1786    1.0  0.75610  0.50000  0.04552  1.0000
  Ti  Ti1787    1.0  1.00000  0.55873  0.04756  1.0000
  Ti  Ti1788    1.0  0.74390  0.39206  0.04756  1.0000
  Ti  Ti1789    1.0  0.98780  0.45079  0.04960  1.0000
  Ti  Ti1790    1.0  0.73171  0.61746  0.04960  1.0000
  Ti  Ti1791    1.0  0.97561  0.34286  0.05164  1.0000
  Ti  Ti1792    1.0  0.71951  0.50952  0.05164  1.0000
  Ti  Ti1793    1.0  0.96341  0.56825  0.05369  1.0000
  Ti  Ti1794    1.0  0.70732  0.40159  0.05369  1.0000
  Ti  Ti1795    1.0  0.95122  0.46032  0.05573  1.0000
  Ti  Ti1796    1.0  0.69512  0.62698  0.05573  1.0000
  Ti  Ti1797    1.0  0.93902  0.35238  0.05777  1.0000
  Ti  Ti1798    1.0  0.68293  0.51905  0.05777  1.0000
  Ti  Ti1799    1.0  0.92683  0.57778  0.05981  1.0000
  Ti  Ti1800    1.0  0.67073  0.41111  0.05981  1.0000
  Ti  Ti1801    1.0  0.91463  0.46984  0.06186  1.0000
  Ti  Ti1802    1.0  0.65854  0.63651  0.06186  1.0000
  Ti  Ti1803    1.0  0.90244  0.36190  0.06390  1.0000
  Ti  Ti1804    1.0  0.64634  0.52857  0.06390  1.0000
  Ti  Ti1805    1.0  0.89024  0.58730  0.06594  1.0000
  Ti  Ti1806    1.0  0.63415  0.42063  0.06594  1.0000
  Ti  Ti1807    1.0  0.87805  0.47937  0.06799  1.0000
  Ti  Ti1808    1.0  0.62195  0.64603  0.06799  1.0000
  Ti  Ti1809    1.0  0.86585  0.37143  0.07003  1.0000
  Ti  Ti1810    1.0  0.60976  0.53810  0.07003  1.0000
  Ti  Ti1811    1.0  0.85366  0.59683  0.07207  1.0000
  Ti  Ti1812    1.0  0.59756  0.43016  0.07207  1.0000
  Ti  Ti1813    1.0  0.84146  0.48889  0.07411  1.0000
  Ti  Ti1814    1.0  0.58537  0.65556  0.07411  1.0000
  Ti  Ti1815    1.0  0.82927  0.38095  0.07616  1.0000
  Ti  Ti1816    1.0  0.57317  0.54762  0.07616  1.0000
  Ti  Ti1817    1.0  0.81707  0.60635  0.07820  1.0000
  Ti  Ti1818    1.0  0.56098  0.43968  0.07820  1.0000
  Ti  Ti1819    1.0  0.80488  0.49841  0.08024  1.0000
  Ti  Ti1820    1.0  0.54878  0.66508  0.08024  1.0000
  Ti  Ti1821    1.0  0.79268  0.39048  0.08228  1.0000
  Ti  Ti1822    1.0  0.53659  0.55714  0.08228  1.0000
  Ti  Ti1823    1.0  0.78049  0.61587  0.08433  1.0000
  Ti  Ti1824    1.0  0.52439  0.44921  0.08433  1.0000
  Ti  Ti1825    1.0  0.76829  0.50794  0.08637  1.0000
  Ti  Ti1826    1.0  0.51220  0.34127  0.08637  1.0000
  Ti  Ti1827    1.0  0.75610  0.40000  0.08841  1.0000
  Ti  Ti1828    1.0  0.50000  0.56667  0.08841  1.0000
  Ti  Ti1829    1.0  0.74390  0.62540  0.09045  1.0000
  Ti  Ti1830    1.0  1.00000  0.45873  0.09045  1.0000
  Ti  Ti1831    1.0  0.73171  0.51746  0.09250  1.0000
  Ti  Ti1832    1.0  0.98780  0.35079  0.09250  1.0000
  Ti  Ti1833    1.0  0.71951  0.40952  0.09454  1.0000
  Ti  Ti1834    1.0  0.97561  0.57619  0.09454  1.0000
  Ti  Ti1835    1.0  0.70732  0.63492  0.09658  1.0000
  Ti  Ti1836    1.0  0.96341  0.46825  0.09658  1.0000
  Ti  Ti1837    1.0  0.69512  0.52698  0.09862  1.0000
  Ti  Ti1838    1.0  0.95122  0.36032  0.09862  1.0000
  Ti  Ti1839    1.0  0.68293  0.41905  0.10067  1.0000
  Ti  Ti1840    1.0  0.93902  0.58571  0.10067  1.0000
  Ti  Ti1841    1.0  0.67073  0.64444  0.10271  1.0000
  Ti  Ti1842    1.0  0.92683  0.47778  0.10271  1.0000
  Ti  Ti1843    1.0  0.65854  0.53651  0.10475  1.0000
  Ti  Ti1844    1.0  0.91463  0.36984  0.10475  1.0000
  Ti  Ti1845    1.0  0.64634  0.42857  0.10679  1.0000
  Ti  Ti1846    1.0  0.90244  0.59524  0.10679  1.0000
  Ti  Ti1847    1.0  0.63415  0.65397  0.10884  1.0000
  Ti  Ti1848    1.0  0.89024  0.48730  0.10884  1.0000
  Ti  Ti1849    1.0  0.62195  0.54603  0.11088  1.0000
  Ti  Ti1850    1.0  0.87805  0.37937  0.11088  1.0000
  Ti  Ti1851    1.0  0.60976  0.43810  0.11292  1.0000
  Ti  Ti1852    1.0  0.86585  0.60476  0.11292  1.0000
  Ti  Ti1853    1.0  0.59756  0.66349  0.11497  1.0000
  Ti  Ti1854    1.0  0.85366  0.49683  0.11497  1.0000
  Ti  Ti1855    1.0  0.58537  0.55556  0.11701  1.0000
  Ti  Ti1856    1.0  0.84146  0.38889  0.11701  1.0000
  Ti  Ti1857    1.0  0.57317  0.44762  0.11905  1.0000
  Ti  Ti1858    1.0  0.82927  0.61429  0.11905  1.0000
  Ti  Ti1859    1.0  0.56098  0.33968  0.12109  1.0000
  Ti  Ti1860    1.0  0.81707  0.50635  0.12109  1.0000
  Ti  Ti1861    1.0  0.54878  0.56508  0.12314  1.0000
  Ti  Ti1862    1.0  0.80488  0.39841  0.12314  1.0000
  Ti  Ti1863    1.0  0.53659  0.45714  0.12518  1.0000
  Ti  Ti1864    1.0  0.79268  0.62381  0.12518  1.0000
  Ti  Ti1865    1.0  0.52439  0.34921  0.12722  1.0000
  Ti  Ti1866    1.0  0.78049  0.51587  0.12722  1.0000
  Ti  Ti1867    1.0  0.51220  0.57460  0.12926  1.0000
  Ti  Ti1868    1.0  0.76829  0.40794  0.12926  1.0000
  Ti  Ti1869    1.0  0.50000  0.46667  0.13131  1.0000
  Ti  Ti1870    1.0  0.75610  0.63333  0.13131  1.0000
  Ti  Ti1871    1.0  1.00000  0.35873  0.13335  1.0000
  Ti  Ti1872    1.0  0.74390  0.52540  0.13335  1.0000
  Ti  Ti1873    1.0  0.98780  0.58413  0.13539  1.0000
  Ti  Ti1874    1.0  0.73171  0.41746  0.13539  1.0000
  Ti  Ti1875    1.0  0.97561  0.47619  0.13743  1.0000
  Ti  Ti1876    1.0  0.71951  0.64286  0.13743  1.0000
  Ti  Ti1877    1.0  0.96341  0.36825  0.13948  1.0000
  Ti  Ti1878    1.0  0.70732  0.53492  0.13948  1.0000
  Ti  Ti1879    1.0  0.95122  0.59365  0.14152  1.0000
  Ti  Ti1880    1.0  0.69512  0.42698  0.14152  1.0000
  Ti  Ti1881    1.0  0.93902  0.48571  0.14356  1.0000
  Ti  Ti1882    1.0  0.68293  0.65238  0.14356  1.0000
  Ti  Ti1883    1.0  0.92683  0.37778  0.14560  1.0000
  Ti  Ti1884    1.0  0.67073  0.54444  0.14560  1.0000
  Ti  Ti1885    1.0  0.91463  0.60317  0.14765  1.0000
  Ti  Ti1886    1.0  0.65854  0.43651  0.14765  1.0000
  Ti  Ti1887    1.0  0.90244  0.49524  0.14969  1.0000
  Ti  Ti1888    1.0  0.64634  0.66190  0.14969  1.0000
  Ti  Ti1889    1.0  0.89024  0.38730  0.15173  1.0000
  Ti  Ti1890    1.0  0.63415  0.55397  0.15173  1.0000
  Ti  Ti1891    1.0  0.87805  0.61270  0.15378  1.0000
  Ti  Ti1892    1.0  0.62195  0.44603  0.15378  1.0000
  Ti  Ti1893    1.0  0.86585  0.50476  0.15582  1.0000
  Ti  Ti1894    1.0  0.60976  0.33810  0.15582  1.0000
  Ti  Ti1895    1.0  0.85366  0.39683  0.15786  1.0000
  Ti  Ti1896    1.0  0.59756  0.56349  0.15786  1.0000
  Ti  Ti1897    1.0  0.84146  0.62222  0.15990  1.0000
  Ti  Ti1898    1.0  0.58537  0.45556  0.15990  1.0000
  Ti  Ti1899    1.0  0.82927  0.51429  0.16195  1.0000
  Ti  Ti1900    1.0  0.57317  0.34762  0.16195  1.0000
  Ti  Ti1901    1.0  0.81707  0.40635  0.16399  1.0000
  Ti  Ti1902    1.0  0.56098  0.57302  0.16399  1.0000
  Ti  Ti1903    1.0  0.80488  0.63175  0.16603  1.0000
  Ti  Ti1904    1.0  0.54878  0.46508  0.16603  1.0000
  Ti  Ti1905    1.0  0.79268  0.52381  0.16807  1.0000
  Ti  Ti1906    1.0  0.53659  0.35714  0.16807  1.0000
  Ti  Ti1907    1.0  0.78049  0.41587  0.17012  1.0000
  Ti  Ti1908    1.0  0.52439  0.58254  0.17012  1.0000
  Ti  Ti1909    1.0  0.76829  0.64127  0.17216  1.0000
  Ti  Ti1910    1.0  0.51220  0.47460  0.17216  1.0000
  Ti  Ti1911    1.0  0.75610  0.53333  0.17420  1.0000
  Ti  Ti1912    1.0  0.50000  0.36667  0.17420  1.0000
  Ti  Ti1913    1.0  0.74390  0.42540  0.17624  1.0000
  Ti  Ti1914    1.0  1.00000  0.59206  0.17624  1.0000
  Ti  Ti1915    1.0  0.73171  0.65079  0.17829  1.0000
  Ti  Ti1916    1.0  0.98780  0.48413  0.17829  1.0000
  Ti  Ti1917    1.0  0.71951  0.54286  0.18033  1.0000
  Ti  Ti1918    1.0  0.97561  0.37619  0.18033  1.0000
  Ti  Ti1919    1.0  0.70732  0.43492  0.18237  1.0000
  Ti  Ti1920    1.0  0.96341  0.60159  0.18237  1.0000
  Ti  Ti1921    1.0  0.69512  0.66032  0.18441  1.0000
  Ti  Ti1922    1.0  0.95122  0.49365  0.18441  1.0000
  Ti  Ti1923    1.0  0.68293  0.55238  0.18646  1.0000
  Ti  Ti1924    1.0  0.93902  0.38571  0.18646  1.0000
  Ti  Ti1925    1.0  0.67073  0.44444  0.18850  1.0000
  Ti  Ti1926    1.0  0.92683  0.61111  0.18850  1.0000
  Ti  Ti1927    1.0  0.65854  0.33651  0.19054  1.0000
  Ti  Ti1928    1.0  0.91463  0.50317  0.19054  1.0000
  Ti  Ti1929    1.0  0.64634  0.56190  0.19259  1.0000
  Ti  Ti1930    1.0  0.90244  0.39524  0.19259  1.0000
  Ti  Ti1931    1.0  0.63415  0.45397  0.19463  1.0000
  Ti  Ti1932    1.0  0.89024  0.62063  0.19463  1.0000
  Ti  Ti1933    1.0  0.62195  0.34603  0.19667  1.0000
  Ti  Ti1934    1.0  0.87805  0.51270  0.19667  1.0000
  Ti  Ti1935    1.0  0.60976  0.57143  0.19871  1.0000
  Ti  Ti1936    1.0  0.86585  0.40476  0.19871  1.0000
  Ti  Ti1937    1.0  0.59756  0.46349  0.20076  1.0000
  Ti  Ti1938    1.0  0.85366  0.63016  0.20076  1.0000
  Ti  Ti1939    1.0  0.58537  0.35556  0.20280  1.0000
  Ti  Ti1940    1.0  0.84146  0.52222  0.20280  1.0000
  Ti  Ti1941    1.0  0.57317  0.58095  0.20484  1.0000
  Ti  Ti1942    1.0  0.82927  0.41429  0.20484  1.0000
  Ti  Ti1943    1.0  0.56098  0.47302  0.20688  1.0000
  Ti  Ti1944    1.0  0.81707  0.63968  0.20688  1.0000
  Ti  Ti1945    1.0  0.54878  0.36508  0.20893  1.0000
  Ti  Ti1946    1.0  0.80488  0.53175  0.20893  1.0000
  Ti  Ti1947    1.0  0.53659  0.59048  0.21097  1.0000
  Ti  Ti1948    1.0  0.79268  0.42381  0.21097  1.0000
  Ti  Ti1949    1.0  0.52439  0.48254  0.21301  1.0000
  Ti  Ti1950    1.0  0.78049  0.64921  0.21301  1.0000
  Ti  Ti1951    1.0  0.51220  0.37460  0.21505  1.0000
  Ti  Ti1952    1.0  0.76829  0.54127  0.21505  1.0000
  Ti  Ti1953    1.0  0.50000  0.60000  0.21710  1.0000
  Ti  Ti1954    1.0  0.75610  0.43333  0.21710  1.0000
  Ti  Ti1955    1.0  1.00000  0.49206  0.21914  1.0000
  Ti  Ti1956    1.0  0.74390  0.65873  0.21914  1.0000
  Ti  Ti1957    1.0  0.98780  0.38413  0.22118  1.0000
  Ti  Ti1958    1.0  0.73171  0.55079  0.22118  1.0000
  Ti  Ti1959    1.0  0.97561  0.60952  0.22322  1.0000
  Ti  Ti1960    1.0  0.71951  0.44286  0.22322  1.0000
  Ti  Ti1961    1.0  0.96341  0.50159  0.22527  1.0000
  Ti  Ti1962    1.0  0.70732  0.33492  0.22527  1.0000
  Ti  Ti1963    1.0  0.95122  0.39365  0.22731  1.0000
  Ti  Ti1964    1.0  0.69512  0.56032  0.22731  1.0000
  Ti  Ti1965    1.0  0.93902  0.61905  0.22935  1.0000
  Ti  Ti1966    1.0  0.68293  0.45238  0.22935  1.0000
  Ti  Ti1967    1.0  0.92683  0.51111  0.23139  1.0000
  Ti  Ti1968    1.0  0.67073  0.34444  0.23139  1.0000
  Ti  Ti1969    1.0  0.91463  0.40317  0.23344  1.0000
  Ti  Ti1970    1.0  0.65854  0.56984  0.23344  1.0000
  Ti  Ti1971    1.0  0.90244  0.62857  0.23548  1.0000
  Ti  Ti1972    1.0  0.64634  0.46190  0.23548  1.0000
  Ti  Ti1973    1.0  0.89024  0.52063  0.23752  1.0000
  Ti  Ti1974    1.0  0.63415  0.35397  0.23752  1.0000
  Ti  Ti1975    1.0  0.87805  0.41270  0.23957  1.0000
  Ti  Ti1976    1.0  0.62195  0.57937  0.23957  1.0000
  Ti  Ti1977    1.0  0.86585  0.63810  0.24161  1.0000
  Ti  Ti1978    1.0  0.60976  0.47143  0.24161  1.0000
  Ti  Ti1979    1.0  0.85366  0.53016  0.24365  1.0000
  Ti  Ti1980    1.0  0.59756  0.36349  0.24365  1.0000
  Ti  Ti1981    1.0  0.84146  0.42222  0.24569  1.0000
  Ti  Ti1982    1.0  0.58537  0.58889  0.24569  1.0000
  Ti  Ti1983    1.0  0.82927  0.64762  0.24774  1.0000
  Ti  Ti1984    1.0  0.57317  0.48095  0.24774  1.0000
  Ti  Ti1985    1.0  0.81707  0.53968  0.24978  1.0000
  Ti  Ti1986    1.0  0.56098  0.37302  0.24978  1.0000
  Ti  Ti1987    1.0  0.80488  0.43175  0.25182  1.0000
  Ti  Ti1988    1.0  0.54878  0.59841  0.25182  1.0000
  Ti  Ti1989    1.0  0.79268  0.65714  0.25386  1.0000
  Ti  Ti1990    1.0  0.53659  0.49048  0.25386  1.0000
  Ti  Ti1991    1.0  0.78049  0.54921  0.25591  1.0000
  Ti  Ti1992    1.0  0.52439  0.38254  0.25591  1.0000
  Ti  Ti1993    1.0  0.76829  0.44127  0.25795  1.0000
  Ti  Ti1994    1.0  0.51220  0.60794  0.25795  1.0000
  Ti  Ti1995    1.0  0.75610  0.66667  0.25999  1.0000
  Ti  Ti1996    1.0  0.50000  0.50000  0.25999  1.0000
  Ti  Ti1997    1.0  0.74390  0.55873  0.26203  1.0000
  Ti  Ti1998    1.0  1.00000  0.39206  0.26203  1.0000
  Ti  Ti1999    1.0  0.73171  0.45079  0.26408  1.0000
  Ti  Ti2000    1.0  0.98780  0.61746  0.26408  1.0000
  Ti  Ti2001    1.0  0.71951  0.34286  0.26612  1.0000
  Ti  Ti2002    1.0  0.97561  0.50952  0.26612  1.0000
  Ti  Ti2003    1.0  0.70732  0.56825  0.26816  1.0000
  Ti  Ti2004    1.0  0.96341  0.40159  0.26816  1.0000
  Ti  Ti2005    1.0  0.69512  0.46032  0.27020  1.0000
  Ti  Ti2006    1.0  0.95122  0.62698  0.27020  1.0000
  Ti  Ti2007    1.0  0.68293  0.35238  0.27225  1.0000
  Ti  Ti2008    1.0  0.93902  0.51905  0.27225  1.0000
  Ti  Ti2009    1.0  0.67073  0.57778  0.27429  1.0000
  Ti  Ti2010    1.0  0.92683  0.41111  0.27429  1.0000
  Ti  Ti2011    1.0  0.65854  0.46984  0.27633  1.0000
  Ti  Ti2012    1.0  0.91463  0.63651  0.27633  1.0000
  Ti  Ti2013    1.0  0.64634  0.36190  0.27838  1.0000
  Ti  Ti2014    1.0  0.90244  0.52857  0.27838  1.0000
  Ti  Ti2015    1.0  0.63415  0.58730  0.28042  1.0000
  Ti  Ti2016    1.0  0.89024  0.42063  0.28042  1.0000
  Ti  Ti2017    1.0  0.62195  0.47937  0.28246  1.0000
  Ti  Ti2018    1.0  0.87805  0.64603  0.28246  1.0000
  Ti  Ti2019    1.0  0.60976  0.37143  0.28450  1.0000
  Ti  Ti2020    1.0  0.86585  0.53810  0.28450  1.0000
  Ti  Ti2021    1.0  0.59756  0.59683  0.28655  1.0000
  Ti  Ti2022    1.0  0.85366  0.43016  0.28655  1.0000
  Ti  Ti2023    1.0  0.58537  0.48889  0.28859  1.0000
  Ti  Ti2024    1.0  0.84146  0.65556  0.28859  1.0000
  Ti  Ti2025    1.0  0.57317  0.38095  0.29063  1.0000
  Ti  Ti2026    1.0  0.82927  0.54762  0.29063  1.0000
  Ti  Ti2027    1.0  0.56098  0.60635  0.29267  1.0000
  Ti  Ti2028    1.0  0.81707  0.43968  0.29267  1.0000
  Ti  Ti2029    1.0  0.54878  0.49841  0.29472  1.0000
  Ti  Ti2030    1.0  0.80488  0.66508  0.29472  1.0000
  Ti  Ti2031    1.0  0.53659  0.39048  0.29676  1.0000
  Ti  Ti2032    1.0  0.79268  0.55714  0.29676  1.0000
  Ti  Ti2033    1.0  0.52439  0.61587  0.29880  1.0000
  Ti  Ti2034    1.0  0.78049  0.44921  0.29880  1.0000
  Ti  Ti2035    1.0  0.51220  0.50794  0.30084  1.0000
  Ti  Ti2036    1.0  0.76829  0.34127  0.30084  1.0000
  Ti  Ti2037    1.0  0.50000  0.40000  0.30289  1.0000
  Ti  Ti2038    1.0  0.75610  0.56667  0.30289  1.0000
  Ti  Ti2039    1.0  1.00000  0.62540  0.30493  1.0000
  Ti  Ti2040    1.0  0.74390  0.45873  0.30493  1.0000
  Ti  Ti2041    1.0  0.98780  0.51746  0.30697  1.0000
  Ti  Ti2042    1.0  0.73171  0.35079  0.30697  1.0000
  Ti  Ti2043    1.0  0.97561  0.40952  0.30901  1.0000
  Ti  Ti2044    1.0  0.71951  0.57619  0.30901  1.0000
  Ti  Ti2045    1.0  0.96341  0.63492  0.31106  1.0000
  Ti  Ti2046    1.0  0.70732  0.46825  0.31106  1.0000
  Ti  Ti2047    1.0  0.95122  0.52698  0.31310  1.0000
  Ti  Ti2048    1.0  0.69512  0.36032  0.31310  1.0000
  Ti  Ti2049    1.0  0.93902  0.41905  0.31514  1.0000
  Ti  Ti2050    1.0  0.68293  0.58571  0.31514  1.0000
  Ti  Ti2051    1.0  0.92683  0.64444  0.31719  1.0000
  Ti  Ti2052    1.0  0.67073  0.47778  0.31719  1.0000
  Ti  Ti2053    1.0  0.91463  0.53651  0.31923  1.0000
  Ti  Ti2054    1.0  0.65854  0.36984  0.31923  1.0000
  Ti  Ti2055    1.0  0.90244  0.42857  0.32127  1.0000
  Ti  Ti2056    1.0  0.64634  0.59524  0.32127  1.0000
  Ti  Ti2057    1.0  0.89024  0.65397  0.32331  1.0000
  Ti  Ti2058    1.0  0.63415  0.48730  0.32331  1.0000
  Ti  Ti2059    1.0  0.87805  0.54603  0.32536  1.0000
  Ti  Ti2060    1.0  0.62195  0.37937  0.32536  1.0000
  Ti  Ti2061    1.0  0.86585  0.43810  0.32740  1.0000
  Ti  Ti2062    1.0  0.60976  0.60476  0.32740  1.0000
  Ti  Ti2063    1.0  0.85366  0.66349  0.32944  1.0000
  Ti  Ti2064    1.0  0.59756  0.49683  0.32944  1.0000
  Ti  Ti2065    1.0  0.84146  0.55556  0.33148  1.0000
  Ti  Ti2066    1.0  0.58537  0.38889  0.33148  1.0000
  Ti  Ti2067    1.0  0.82927  0.44762  0.33353  1.0000
  Ti  Ti2068    1.0  0.57317  0.61429  0.33353  1.0000
  Ti  Ti2069    1.0  0.81707  0.33968  0.33557  1.0000
  Ti  Ti2070    1.0  0.56098  0.50635  0.33557  1.0000
  Ti  Ti2071    1.0  0.80488  0.56508  0.33761  1.0000
  Ti  Ti2072    1.0  0.54878  0.39841  0.33761  1.0000
  Ti  Ti2073    1.0  0.79268  0.45714  0.33965  1.0000
  Ti  Ti2074    1.0  0.53659  0.62381  0.33965  1.0000
  Ti  Ti2075    1.0  0.78049  0.34921  0.34170  1.0000
  Ti  Ti2076    1.0  0.52439  0.51587  0.34170  1.0000
  Ti  Ti2077    1.0  0.76829  0.57460  0.34374  1.0000
  Ti  Ti2078    1.0  0.51220  0.40794  0.34374  1.0000
  Ti  Ti2079    1.0  0.75610  0.46667  0.34578  1.0000
  Ti  Ti2080    1.0  0.50000  0.63333  0.34578  1.0000
  Ti  Ti2081    1.0  0.74390  0.35873  0.34782  1.0000
  Ti  Ti2082    1.0  1.00000  0.52540  0.34782  1.0000
  Ti  Ti2083    1.0  0.73171  0.58413  0.34987  1.0000
  Ti  Ti2084    1.0  0.98780  0.41746  0.34987  1.0000
  Ti  Ti2085    1.0  0.71951  0.47619  0.35191  1.0000
  Ti  Ti2086    1.0  0.97561  0.64286  0.35191  1.0000
  Ti  Ti2087    1.0  0.70732  0.36825  0.35395  1.0000
  Ti  Ti2088    1.0  0.96341  0.53492  0.35395  1.0000
  Ti  Ti2089    1.0  0.69512  0.59365  0.35600  1.0000
  Ti  Ti2090    1.0  0.95122  0.42698  0.35600  1.0000
  Ti  Ti2091    1.0  0.68293  0.48571  0.35804  1.0000
  Ti  Ti2092    1.0  0.93902  0.65238  0.35804  1.0000
  Ti  Ti2093    1.0  0.67073  0.37778  0.36008  1.0000
  Ti  Ti2094    1.0  0.92683  0.54444  0.36008  1.0000
  Ti  Ti2095    1.0  0.65854  0.60317  0.36212  1.0000
  Ti  Ti2096    1.0  0.91463  0.43651  0.36212  1.0000
  Ti  Ti2097    1.0  0.64634  0.49524  0.36417  1.0000
  Ti  Ti2098    1.0  0.90244  0.66190  0.36417  1.0000
  Ti  Ti2099    1.0  0.63415  0.38730  0.36621  1.0000
  Ti  Ti2100    1.0  0.89024  0.55397  0.36621  1.0000
  Ti  Ti2101    1.0  0.62195  0.61270  0.36825  1.0000
  Ti  Ti2102    1.0  0.87805  0.44603  0.36825  1.0000
  Ti  Ti2103    1.0  0.60976  0.50476  0.37029  1.0000
  Ti  Ti2104    1.0  0.86585  0.33810  0.37029  1.0000
  Ti  Ti2105    1.0  0.59756  0.39683  0.37234  1.0000
  Ti  Ti2106    1.0  0.85366  0.56349  0.37234  1.0000
  Ti  Ti2107    1.0  0.58537  0.62222  0.37438  1.0000
  Ti  Ti2108    1.0  0.84146  0.45556  0.37438  1.0000
  Ti  Ti2109    1.0  0.57317  0.51429  0.37642  1.0000
  Ti  Ti2110    1.0  0.82927  0.34762  0.37642  1.0000
  Ti  Ti2111    1.0  0.56098  0.40635  0.37846  1.0000
  Ti  Ti2112    1.0  0.81707  0.57302  0.37846  1.0000
  Ti  Ti2113    1.0  0.54878  0.63175  0.38051  1.0000
  Ti  Ti2114    1.0  0.80488  0.46508  0.38051  1.0000
  Ti  Ti2115    1.0  0.53659  0.52381  0.38255  1.0000
  Ti  Ti2116    1.0  0.79268  0.35714  0.38255  1.0000
  Ti  Ti2117    1.0  0.52439  0.41587  0.38459  1.0000
  Ti  Ti2118    1.0  0.78049  0.58254  0.38459  1.0000
  Ti  Ti2119    1.0  0.51220  0.64127  0.38663  1.0000
  Ti  Ti2120    1.0  0.76829  0.47460  0.38663  1.0000
  Ti  Ti2121    1.0  0.50000  0.53333  0.38868  1.0000
  Ti  Ti2122    1.0  0.75610  0.36667  0.38868  1.0000
  Ti  Ti2123    1.0  0.00000  0.42540  0.39072  1.0000
  Ti  Ti2124    1.0  0.74390  0.59206  0.39072  1.0000
  Ti  Ti2125    1.0  0.98780  0.65079  0.39276  1.0000
  Ti  Ti2126    1.0  0.73171  0.48413  0.39276  1.0000
  Ti  Ti2127    1.0  0.97561  0.54286  0.39480  1.0000
  Ti  Ti2128    1.0  0.71951  0.37619  0.39480  1.0000
  Ti  Ti2129    1.0  0.96341  0.43492  0.39685  1.0000
  Ti  Ti2130    1.0  0.70732  0.60159  0.39685  1.0000
  Ti  Ti2131    1.0  0.95122  0.66032  0.39889  1.0000
  Ti  Ti2132    1.0  0.69512  0.49365  0.39889  1.0000
  Ti  Ti2133    1.0  0.93902  0.55238  0.40093  1.0000
  Ti  Ti2134    1.0  0.68293  0.38571  0.40093  1.0000
  Ti  Ti2135    1.0  0.92683  0.44444  0.40298  1.0000
  Ti  Ti2136    1.0  0.67073  0.61111  0.40298  1.0000
  Ti  Ti2137    1.0  0.91463  0.33651  0.40502  1.0000
  Ti  Ti2138    1.0  0.65854  0.50317  0.40502  1.0000
  Ti  Ti2139    1.0  0.90244  0.56190  0.40706  1.0000
  Ti  Ti2140    1.0  0.64634  0.39524  0.40706  1.0000
  Ti  Ti2141    1.0  0.89024  0.45397  0.40910  1.0000
  Ti  Ti2142    1.0  0.63415  0.62063  0.40910  1.0000
  Ti  Ti2143    1.0  0.87805  0.34603  0.41115  1.0000
  Ti  Ti2144    1.0  0.62195  0.51270  0.41115  1.0000
  Ti  Ti2145    1.0  0.86585  0.57143  0.41319  1.0000
  Ti  Ti2146    1.0  0.60976  0.40476  0.41319  1.0000
  Ti  Ti2147    1.0  0.85366  0.46349  0.41523  1.0000
  Ti  Ti2148    1.0  0.59756  0.63016  0.41523  1.0000
  Ti  Ti2149    1.0  0.84146  0.35556  0.41727  1.0000
  Ti  Ti2150    1.0  0.58537  0.52222  0.41727  1.0000
  Ti  Ti2151    1.0  0.82927  0.58095  0.41932  1.0000
  Ti  Ti2152    1.0  0.57317  0.41429  0.41932  1.0000
  Ti  Ti2153    1.0  0.81707  0.47302  0.42136  1.0000
  Ti  Ti2154    1.0  0.56098  0.63968  0.42136  1.0000
  Ti  Ti2155    1.0  0.80488  0.36508  0.42340  1.0000
  Ti  Ti2156    1.0  0.54878  0.53175  0.42340  1.0000
  Ti  Ti2157    1.0  0.79268  0.59048  0.42544  1.0000
  Ti  Ti2158    1.0  0.53659  0.42381  0.42544  1.0000
  Ti  Ti2159    1.0  0.78049  0.48254  0.42749  1.0000
  Ti  Ti2160    1.0  0.52439  0.64921  0.42749  1.0000
  Ti  Ti2161    1.0  0.76829  0.37460  0.42953  1.0000
  Ti  Ti2162    1.0  0.51220  0.54127  0.42953  1.0000
  Ti  Ti2163    1.0  0.75610  0.60000  0.43157  1.0000
  Ti  Ti2164    1.0  0.50000  0.43333  0.43157  1.0000
  Ti  Ti2165    1.0  0.74390  0.49206  0.43361  1.0000
  Ti  Ti2166    1.0  1.00000  0.65873  0.43361  1.0000
  Ti  Ti2167    1.0  0.73171  0.38413  0.43566  1.0000
  Ti  Ti2168    1.0  0.98780  0.55079  0.43566  1.0000
  Ti  Ti2169    1.0  0.71951  0.60952  0.43770  1.0000
  Ti  Ti2170    1.0  0.97561  0.44286  0.43770  1.0000
  Ti  Ti2171    1.0  0.70732  0.50159  0.43974  1.0000
  Ti  Ti2172    1.0  0.96341  0.33492  0.43974  1.0000
  Ti  Ti2173    1.0  0.69512  0.39365  0.44179  1.0000
  Ti  Ti2174    1.0  0.95122  0.56032  0.44179  1.0000
  Ti  Ti2175    1.0  0.68293  0.61905  0.44383  1.0000
  Ti  Ti2176    1.0  0.93902  0.45238  0.44383  1.0000
  Ti  Ti2177    1.0  0.67073  0.51111  0.44587  1.0000
  Ti  Ti2178    1.0  0.92683  0.34444  0.44587  1.0000
  Ti  Ti2179    1.0  0.65854  0.40317  0.44791  1.0000
  Ti  Ti2180    1.0  0.91463  0.56984  0.44791  1.0000
  Ti  Ti2181    1.0  0.64634  0.62857  0.44996  1.0000
  Ti  Ti2182    1.0  0.90244  0.46190  0.44996  1.0000
  Ti  Ti2183    1.0  0.63415  0.52063  0.45200  1.0000
  Ti  Ti2184    1.0  0.89024  0.35397  0.45200  1.0000
  Ti  Ti2185    1.0  0.62195  0.41270  0.45404  1.0000
  Ti  Ti2186    1.0  0.87805  0.57937  0.45404  1.0000
  Ti  Ti2187    1.0  0.60976  0.63810  0.45608  1.0000
  Ti  Ti2188    1.0  0.86585  0.47143  0.45608  1.0000
  Ti  Ti2189    1.0  0.59756  0.53016  0.45813  1.0000
  Ti  Ti2190    1.0  0.85366  0.36349  0.45813  1.0000
  Ti  Ti2191    1.0  0.58537  0.42222  0.46017  1.0000
  Ti  Ti2192    1.0  0.84146  0.58889  0.46017  1.0000
  Ti  Ti2193    1.0  0.57317  0.64762  0.46221  1.0000
  Ti  Ti2194    1.0  0.82927  0.48095  0.46221  1.0000
  Ti  Ti2195    1.0  0.56098  0.53968  0.46425  1.0000
  Ti  Ti2196    1.0  0.81707  0.37302  0.46425  1.0000
  Ti  Ti2197    1.0  0.54878  0.43175  0.46630  1.0000
  Ti  Ti2198    1.0  0.80488  0.59841  0.46630  1.0000
  Ti  Ti2199    1.0  0.53659  0.65714  0.46834  1.0000
  Ti  Ti2200    1.0  0.79268  0.49048  0.46834  1.0000
  Ti  Ti2201    1.0  0.52439  0.54921  0.47038  1.0000
  Ti  Ti2202    1.0  0.78049  0.38254  0.47038  1.0000
  Ti  Ti2203    1.0  0.51220  0.44127  0.47242  1.0000
  Ti  Ti2204    1.0  0.76829  0.60794  0.47242  1.0000
  Ti  Ti2205    1.0  0.50000  0.66667  0.47447  1.0000
  Ti  Ti2206    1.0  0.75610  0.50000  0.47447  1.0000
  Ti  Ti2207    1.0  1.00000  0.55873  0.47651  1.0000
  Ti  Ti2208    1.0  0.74390  0.39206  0.47651  1.0000
  Ti  Ti2209    1.0  0.98780  0.45079  0.47855  1.0000
  Ti  Ti2210    1.0  0.73171  0.61746  0.47855  1.0000
  Ti  Ti2211    1.0  0.97561  0.34286  0.48060  1.0000
  Ti  Ti2212    1.0  0.71951  0.50952  0.48060  1.0000
  Ti  Ti2213    1.0  0.96341  0.56825  0.48264  1.0000
  Ti  Ti2214    1.0  0.70732  0.40159  0.48264  1.0000
  Ti  Ti2215    1.0  0.95122  0.46032  0.48468  1.0000
  Ti  Ti2216    1.0  0.69512  0.62698  0.48468  1.0000
  Ti  Ti2217    1.0  0.93902  0.35238  0.48672  1.0000
  Ti  Ti2218    1.0  0.68293  0.51905  0.48672  1.0000
  Ti  Ti2219    1.0  0.92683  0.57778  0.48877  1.0000
  Ti  Ti2220    1.0  0.67073  0.41111  0.48877  1.0000
  Ti  Ti2221    1.0  0.91463  0.46984  0.49081  1.0000
  Ti  Ti2222    1.0  0.65854  0.63651  0.49081  1.0000
  Ti  Ti2223    1.0  0.90244  0.36190  0.49285  1.0000
  Ti  Ti2224    1.0  0.64634  0.52857  0.49285  1.0000
  Ti  Ti2225    1.0  0.89024  0.58730  0.49489  1.0000
  Ti  Ti2226    1.0  0.63415  0.42063  0.49489  1.0000
  Ti  Ti2227    1.0  0.87805  0.47937  0.49694  1.0000
  Ti  Ti2228    1.0  0.62195  0.64603  0.49694  1.0000
  Ti  Ti2229    1.0  0.86585  0.37143  0.49898  1.0000
  Ti  Ti2230    1.0  0.60976  0.53810  0.49898  1.0000
  Ti  Ti2231    1.0  0.50000  0.66667  0.04552  1.0000
  Ti  Ti2232    1.0  0.75610  0.83333  0.04552  1.0000
  Ti  Ti2233    1.0  1.00000  0.89206  0.04756  1.0000
  Ti  Ti2234    1.0  0.74390  0.72540  0.04756  1.0000
  Ti  Ti2235    1.0  0.98780  0.78413  0.04960  1.0000
  Ti  Ti2236    1.0  0.73171  0.95079  0.04960  1.0000
  Ti  Ti2237    1.0  0.97561  0.67619  0.05164  1.0000
  Ti  Ti2238    1.0  0.71951  0.84286  0.05164  1.0000
  Ti  Ti2239    1.0  0.96341  0.90159  0.05369  1.0000
  Ti  Ti2240    1.0  0.70732  0.73492  0.05369  1.0000
  Ti  Ti2241    1.0  0.95122  0.79365  0.05573  1.0000
  Ti  Ti2242    1.0  0.69512  0.96032  0.05573  1.0000
  Ti  Ti2243    1.0  0.93902  0.68571  0.05777  1.0000
  Ti  Ti2244    1.0  0.68293  0.85238  0.05777  1.0000
  Ti  Ti2245    1.0  0.92683  0.91111  0.05981  1.0000
  Ti  Ti2246    1.0  0.67073  0.74444  0.05981  1.0000
  Ti  Ti2247    1.0  0.91463  0.80317  0.06186  1.0000
  Ti  Ti2248    1.0  0.65854  0.96984  0.06186  1.0000
  Ti  Ti2249    1.0  0.90244  0.69524  0.06390  1.0000
  Ti  Ti2250    1.0  0.64634  0.86190  0.06390  1.0000
  Ti  Ti2251    1.0  0.89024  0.92063  0.06594  1.0000
  Ti  Ti2252    1.0  0.63415  0.75397  0.06594  1.0000
  Ti  Ti2253    1.0  0.87805  0.81270  0.06799  1.0000
  Ti  Ti2254    1.0  0.62195  0.97937  0.06799  1.0000
  Ti  Ti2255    1.0  0.86585  0.70476  0.07003  1.0000
  Ti  Ti2256    1.0  0.60976  0.87143  0.07003  1.0000
  Ti  Ti2257    1.0  0.85366  0.93016  0.07207  1.0000
  Ti  Ti2258    1.0  0.59756  0.76349  0.07207  1.0000
  Ti  Ti2259    1.0  0.84146  0.82222  0.07411  1.0000
  Ti  Ti2260    1.0  0.58537  0.98889  0.07411  1.0000
  Ti  Ti2261    1.0  0.82927  0.71429  0.07616  1.0000
  Ti  Ti2262    1.0  0.57317  0.88095  0.07616  1.0000
  Ti  Ti2263    1.0  0.81707  0.93968  0.07820  1.0000
  Ti  Ti2264    1.0  0.56098  0.77302  0.07820  1.0000
  Ti  Ti2265    1.0  0.80488  0.83175  0.08024  1.0000
  Ti  Ti2266    1.0  0.54878  0.99841  0.08024  1.0000
  Ti  Ti2267    1.0  0.79268  0.72381  0.08228  1.0000
  Ti  Ti2268    1.0  0.53659  0.89048  0.08228  1.0000
  Ti  Ti2269    1.0  0.78049  0.94921  0.08433  1.0000
  Ti  Ti2270    1.0  0.52439  0.78254  0.08433  1.0000
  Ti  Ti2271    1.0  0.76829  0.84127  0.08637  1.0000
  Ti  Ti2272    1.0  0.51220  0.67460  0.08637  1.0000
  Ti  Ti2273    1.0  0.75610  0.73333  0.08841  1.0000
  Ti  Ti2274    1.0  0.50000  0.90000  0.08841  1.0000
  Ti  Ti2275    1.0  0.74390  0.95873  0.09045  1.0000
  Ti  Ti2276    1.0  1.00000  0.79206  0.09045  1.0000
  Ti  Ti2277    1.0  0.73171  0.85079  0.09250  1.0000
  Ti  Ti2278    1.0  0.98780  0.68413  0.09250  1.0000
  Ti  Ti2279    1.0  0.71951  0.74286  0.09454  1.0000
  Ti  Ti2280    1.0  0.97561  0.90952  0.09454  1.0000
  Ti  Ti2281    1.0  0.70732  0.96825  0.09658  1.0000
  Ti  Ti2282    1.0  0.96341  0.80159  0.09658  1.0000
  Ti  Ti2283    1.0  0.69512  0.86032  0.09862  1.0000
  Ti  Ti2284    1.0  0.95122  0.69365  0.09862  1.0000
  Ti  Ti2285    1.0  0.68293  0.75238  0.10067  1.0000
  Ti  Ti2286    1.0  0.93902  0.91905  0.10067  1.0000
  Ti  Ti2287    1.0  0.67073  0.97778  0.10271  1.0000
  Ti  Ti2288    1.0  0.92683  0.81111  0.10271  1.0000
  Ti  Ti2289    1.0  0.65854  0.86984  0.10475  1.0000
  Ti  Ti2290    1.0  0.91463  0.70317  0.10475  1.0000
  Ti  Ti2291    1.0  0.64634  0.76190  0.10679  1.0000
  Ti  Ti2292    1.0  0.90244  0.92857  0.10679  1.0000
  Ti  Ti2293    1.0  0.63415  0.98730  0.10884  1.0000
  Ti  Ti2294    1.0  0.89024  0.82063  0.10884  1.0000
  Ti  Ti2295    1.0  0.62195  0.87937  0.11088  1.0000
  Ti  Ti2296    1.0  0.87805  0.71270  0.11088  1.0000
  Ti  Ti2297    1.0  0.60976  0.77143  0.11292  1.0000
  Ti  Ti2298    1.0  0.86585  0.93810  0.11292  1.0000
  Ti  Ti2299    1.0  0.59756  0.99683  0.11497  1.0000
  Ti  Ti2300    1.0  0.85366  0.83016  0.11497  1.0000
  Ti  Ti2301    1.0  0.58537  0.88889  0.11701  1.0000
  Ti  Ti2302    1.0  0.84146  0.72222  0.11701  1.0000
  Ti  Ti2303    1.0  0.57317  0.78095  0.11905  1.0000
  Ti  Ti2304    1.0  0.82927  0.94762  0.11905  1.0000
  Ti  Ti2305    1.0  0.56098  0.67302  0.12109  1.0000
  Ti  Ti2306    1.0  0.81707  0.83968  0.12109  1.0000
  Ti  Ti2307    1.0  0.54878  0.89841  0.12314  1.0000
  Ti  Ti2308    1.0  0.80488  0.73175  0.12314  1.0000
  Ti  Ti2309    1.0  0.53659  0.79048  0.12518  1.0000
  Ti  Ti2310    1.0  0.79268  0.95714  0.12518  1.0000
  Ti  Ti2311    1.0  0.52439  0.68254  0.12722  1.0000
  Ti  Ti2312    1.0  0.78049  0.84921  0.12722  1.0000
  Ti  Ti2313    1.0  0.51220  0.90794  0.12926  1.0000
  Ti  Ti2314    1.0  0.76829  0.74127  0.12926  1.0000
  Ti  Ti2315    1.0  0.50000  0.80000  0.13131  1.0000
  Ti  Ti2316    1.0  0.75610  0.96667  0.13131  1.0000
  Ti  Ti2317    1.0  1.00000  0.69206  0.13335  1.0000
  Ti  Ti2318    1.0  0.74390  0.85873  0.13335  1.0000
  Ti  Ti2319    1.0  0.98780  0.91746  0.13539  1.0000
  Ti  Ti2320    1.0  0.73171  0.75079  0.13539  1.0000
  Ti  Ti2321    1.0  0.97561  0.80952  0.13743  1.0000
  Ti  Ti2322    1.0  0.71951  0.97619  0.13743  1.0000
  Ti  Ti2323    1.0  0.96341  0.70159  0.13948  1.0000
  Ti  Ti2324    1.0  0.70732  0.86825  0.13948  1.0000
  Ti  Ti2325    1.0  0.95122  0.92698  0.14152  1.0000
  Ti  Ti2326    1.0  0.69512  0.76032  0.14152  1.0000
  Ti  Ti2327    1.0  0.93902  0.81905  0.14356  1.0000
  Ti  Ti2328    1.0  0.68293  0.98571  0.14356  1.0000
  Ti  Ti2329    1.0  0.92683  0.71111  0.14560  1.0000
  Ti  Ti2330    1.0  0.67073  0.87778  0.14560  1.0000
  Ti  Ti2331    1.0  0.91463  0.93651  0.14765  1.0000
  Ti  Ti2332    1.0  0.65854  0.76984  0.14765  1.0000
  Ti  Ti2333    1.0  0.90244  0.82857  0.14969  1.0000
  Ti  Ti2334    1.0  0.64634  0.99524  0.14969  1.0000
  Ti  Ti2335    1.0  0.89024  0.72063  0.15173  1.0000
  Ti  Ti2336    1.0  0.63415  0.88730  0.15173  1.0000
  Ti  Ti2337    1.0  0.87805  0.94603  0.15378  1.0000
  Ti  Ti2338    1.0  0.62195  0.77937  0.15378  1.0000
  Ti  Ti2339    1.0  0.86585  0.83810  0.15582  1.0000
  Ti  Ti2340    1.0  0.60976  0.67143  0.15582  1.0000
  Ti  Ti2341    1.0  0.85366  0.73016  0.15786  1.0000
  Ti  Ti2342    1.0  0.59756  0.89683  0.15786  1.0000
  Ti  Ti2343    1.0  0.84146  0.95556  0.15990  1.0000
  Ti  Ti2344    1.0  0.58537  0.78889  0.15990  1.0000
  Ti  Ti2345    1.0  0.82927  0.84762  0.16195  1.0000
  Ti  Ti2346    1.0  0.57317  0.68095  0.16195  1.0000
  Ti  Ti2347    1.0  0.81707  0.73968  0.16399  1.0000
  Ti  Ti2348    1.0  0.56098  0.90635  0.16399  1.0000
  Ti  Ti2349    1.0  0.80488  0.96508  0.16603  1.0000
  Ti  Ti2350    1.0  0.54878  0.79841  0.16603  1.0000
  Ti  Ti2351    1.0  0.79268  0.85714  0.16807  1.0000
  Ti  Ti2352    1.0  0.53659  0.69048  0.16807  1.0000
  Ti  Ti2353    1.0  0.78049  0.74921  0.17012  1.0000
  Ti  Ti2354    1.0  0.52439  0.91587  0.17012  1.0000
  Ti  Ti2355    1.0  0.76829  0.97460  0.17216  1.0000
  Ti  Ti2356    1.0  0.51220  0.80794  0.17216  1.0000
  Ti  Ti2357    1.0  0.75610  0.86667  0.17420  1.0000
  Ti  Ti2358    1.0  0.50000  0.70000  0.17420  1.0000
  Ti  Ti2359    1.0  0.74390  0.75873  0.17624  1.0000
  Ti  Ti2360    1.0  1.00000  0.92540  0.17624  1.0000
  Ti  Ti2361    1.0  0.73171  0.98413  0.17829  1.0000
  Ti  Ti2362    1.0  0.98780  0.81746  0.17829  1.0000
  Ti  Ti2363    1.0  0.71951  0.87619  0.18033  1.0000
  Ti  Ti2364    1.0  0.97561  0.70952  0.18033  1.0000
  Ti  Ti2365    1.0  0.70732  0.76825  0.18237  1.0000
  Ti  Ti2366    1.0  0.96341  0.93492  0.18237  1.0000
  Ti  Ti2367    1.0  0.69512  0.99365  0.18441  1.0000
  Ti  Ti2368    1.0  0.95122  0.82698  0.18441  1.0000
  Ti  Ti2369    1.0  0.68293  0.88571  0.18646  1.0000
  Ti  Ti2370    1.0  0.93902  0.71905  0.18646  1.0000
  Ti  Ti2371    1.0  0.67073  0.77778  0.18850  1.0000
  Ti  Ti2372    1.0  0.92683  0.94444  0.18850  1.0000
  Ti  Ti2373    1.0  0.65854  0.66984  0.19054  1.0000
  Ti  Ti2374    1.0  0.91463  0.83651  0.19054  1.0000
  Ti  Ti2375    1.0  0.64634  0.89524  0.19259  1.0000
  Ti  Ti2376    1.0  0.90244  0.72857  0.19259  1.0000
  Ti  Ti2377    1.0  0.63415  0.78730  0.19463  1.0000
  Ti  Ti2378    1.0  0.89024  0.95397  0.19463  1.0000
  Ti  Ti2379    1.0  0.62195  0.67937  0.19667  1.0000
  Ti  Ti2380    1.0  0.87805  0.84603  0.19667  1.0000
  Ti  Ti2381    1.0  0.60976  0.90476  0.19871  1.0000
  Ti  Ti2382    1.0  0.86585  0.73810  0.19871  1.0000
  Ti  Ti2383    1.0  0.59756  0.79683  0.20076  1.0000
  Ti  Ti2384    1.0  0.85366  0.96349  0.20076  1.0000
  Ti  Ti2385    1.0  0.58537  0.68889  0.20280  1.0000
  Ti  Ti2386    1.0  0.84146  0.85556  0.20280  1.0000
  Ti  Ti2387    1.0  0.57317  0.91429  0.20484  1.0000
  Ti  Ti2388    1.0  0.82927  0.74762  0.20484  1.0000
  Ti  Ti2389    1.0  0.56098  0.80635  0.20688  1.0000
  Ti  Ti2390    1.0  0.81707  0.97302  0.20688  1.0000
  Ti  Ti2391    1.0  0.54878  0.69841  0.20893  1.0000
  Ti  Ti2392    1.0  0.80488  0.86508  0.20893  1.0000
  Ti  Ti2393    1.0  0.53659  0.92381  0.21097  1.0000
  Ti  Ti2394    1.0  0.79268  0.75714  0.21097  1.0000
  Ti  Ti2395    1.0  0.52439  0.81587  0.21301  1.0000
  Ti  Ti2396    1.0  0.78049  0.98254  0.21301  1.0000
  Ti  Ti2397    1.0  0.51220  0.70794  0.21505  1.0000
  Ti  Ti2398    1.0  0.76829  0.87460  0.21505  1.0000
  Ti  Ti2399    1.0  0.50000  0.93333  0.21710  1.0000
  Ti  Ti2400    1.0  0.75610  0.76667  0.21710  1.0000
  Ti  Ti2401    1.0  1.00000  0.82540  0.21914  1.0000
  Ti  Ti2402    1.0  0.74390  0.99206  0.21914  1.0000
  Ti  Ti2403    1.0  0.98780  0.71746  0.22118  1.0000
  Ti  Ti2404    1.0  0.73171  0.88413  0.22118  1.0000
  Ti  Ti2405    1.0  0.97561  0.94286  0.22322  1.0000
  Ti  Ti2406    1.0  0.71951  0.77619  0.22322  1.0000
  Ti  Ti2407    1.0  0.96341  0.83492  0.22527  1.0000
  Ti  Ti2408    1.0  0.70732  0.66825  0.22527  1.0000
  Ti  Ti2409    1.0  0.95122  0.72698  0.22731  1.0000
  Ti  Ti2410    1.0  0.69512  0.89365  0.22731  1.0000
  Ti  Ti2411    1.0  0.93902  0.95238  0.22935  1.0000
  Ti  Ti2412    1.0  0.68293  0.78571  0.22935  1.0000
  Ti  Ti2413    1.0  0.92683  0.84444  0.23139  1.0000
  Ti  Ti2414    1.0  0.67073  0.67778  0.23139  1.0000
  Ti  Ti2415    1.0  0.91463  0.73651  0.23344  1.0000
  Ti  Ti2416    1.0  0.65854  0.90317  0.23344  1.0000
  Ti  Ti2417    1.0  0.90244  0.96190  0.23548  1.0000
  Ti  Ti2418    1.0  0.64634  0.79524  0.23548  1.0000
  Ti  Ti2419    1.0  0.89024  0.85397  0.23752  1.0000
  Ti  Ti2420    1.0  0.63415  0.68730  0.23752  1.0000
  Ti  Ti2421    1.0  0.87805  0.74603  0.23957  1.0000
  Ti  Ti2422    1.0  0.62195  0.91270  0.23957  1.0000
  Ti  Ti2423    1.0  0.86585  0.97143  0.24161  1.0000
  Ti  Ti2424    1.0  0.60976  0.80476  0.24161  1.0000
  Ti  Ti2425    1.0  0.85366  0.86349  0.24365  1.0000
  Ti  Ti2426    1.0  0.59756  0.69683  0.24365  1.0000
  Ti  Ti2427    1.0  0.84146  0.75556  0.24569  1.0000
  Ti  Ti2428    1.0  0.58537  0.92222  0.24569  1.0000
  Ti  Ti2429    1.0  0.82927  0.98095  0.24774  1.0000
  Ti  Ti2430    1.0  0.57317  0.81429  0.24774  1.0000
  Ti  Ti2431    1.0  0.81707  0.87302  0.24978  1.0000
  Ti  Ti2432    1.0  0.56098  0.70635  0.24978  1.0000
  Ti  Ti2433    1.0  0.80488  0.76508  0.25182  1.0000
  Ti  Ti2434    1.0  0.54878  0.93175  0.25182  1.0000
  Ti  Ti2435    1.0  0.79268  0.99048  0.25386  1.0000
  Ti  Ti2436    1.0  0.53659  0.82381  0.25386  1.0000
  Ti  Ti2437    1.0  0.78049  0.88254  0.25591  1.0000
  Ti  Ti2438    1.0  0.52439  0.71587  0.25591  1.0000
  Ti  Ti2439    1.0  0.76829  0.77460  0.25795  1.0000
  Ti  Ti2440    1.0  0.51220  0.94127  0.25795  1.0000
  Ti  Ti2441    1.0  0.75610  0.00000  0.25999  1.0000
  Ti  Ti2442    1.0  0.50000  0.83333  0.25999  1.0000
  Ti  Ti2443    1.0  0.74390  0.89206  0.26203  1.0000
  Ti  Ti2444    1.0  1.00000  0.72540  0.26203  1.0000
  Ti  Ti2445    1.0  0.73171  0.78413  0.26408  1.0000
  Ti  Ti2446    1.0  0.98780  0.95079  0.26408  1.0000
  Ti  Ti2447    1.0  0.71951  0.67619  0.26612  1.0000
  Ti  Ti2448    1.0  0.97561  0.84286  0.26612  1.0000
  Ti  Ti2449    1.0  0.70732  0.90159  0.26816  1.0000
  Ti  Ti2450    1.0  0.96341  0.73492  0.26816  1.0000
  Ti  Ti2451    1.0  0.69512  0.79365  0.27020  1.0000
  Ti  Ti2452    1.0  0.95122  0.96032  0.27020  1.0000
  Ti  Ti2453    1.0  0.68293  0.68571  0.27225  1.0000
  Ti  Ti2454    1.0  0.93902  0.85238  0.27225  1.0000
  Ti  Ti2455    1.0  0.67073  0.91111  0.27429  1.0000
  Ti  Ti2456    1.0  0.92683  0.74444  0.27429  1.0000
  Ti  Ti2457    1.0  0.65854  0.80317  0.27633  1.0000
  Ti  Ti2458    1.0  0.91463  0.96984  0.27633  1.0000
  Ti  Ti2459    1.0  0.64634  0.69524  0.27838  1.0000
  Ti  Ti2460    1.0  0.90244  0.86190  0.27838  1.0000
  Ti  Ti2461    1.0  0.63415  0.92063  0.28042  1.0000
  Ti  Ti2462    1.0  0.89024  0.75397  0.28042  1.0000
  Ti  Ti2463    1.0  0.62195  0.81270  0.28246  1.0000
  Ti  Ti2464    1.0  0.87805  0.97937  0.28246  1.0000
  Ti  Ti2465    1.0  0.60976  0.70476  0.28450  1.0000
  Ti  Ti2466    1.0  0.86585  0.87143  0.28450  1.0000
  Ti  Ti2467    1.0  0.59756  0.93016  0.28655  1.0000
  Ti  Ti2468    1.0  0.85366  0.76349  0.28655  1.0000
  Ti  Ti2469    1.0  0.58537  0.82222  0.28859  1.0000
  Ti  Ti2470    1.0  0.84146  0.98889  0.28859  1.0000
  Ti  Ti2471    1.0  0.57317  0.71429  0.29063  1.0000
  Ti  Ti2472    1.0  0.82927  0.88095  0.29063  1.0000
  Ti  Ti2473    1.0  0.56098  0.93968  0.29267  1.0000
  Ti  Ti2474    1.0  0.81707  0.77302  0.29267  1.0000
  Ti  Ti2475    1.0  0.54878  0.83175  0.29472  1.0000
  Ti  Ti2476    1.0  0.80488  0.99841  0.29472  1.0000
  Ti  Ti2477    1.0  0.53659  0.72381  0.29676  1.0000
  Ti  Ti2478    1.0  0.79268  0.89048  0.29676  1.0000
  Ti  Ti2479    1.0  0.52439  0.94921  0.29880  1.0000
  Ti  Ti2480    1.0  0.78049  0.78254  0.29880  1.0000
  Ti  Ti2481    1.0  0.51220  0.84127  0.30084  1.0000
  Ti  Ti2482    1.0  0.76829  0.67460  0.30084  1.0000
  Ti  Ti2483    1.0  0.50000  0.73333  0.30289  1.0000
  Ti  Ti2484    1.0  0.75610  0.90000  0.30289  1.0000
  Ti  Ti2485    1.0  1.00000  0.95873  0.30493  1.0000
  Ti  Ti2486    1.0  0.74390  0.79206  0.30493  1.0000
  Ti  Ti2487    1.0  0.98780  0.85079  0.30697  1.0000
  Ti  Ti2488    1.0  0.73171  0.68413  0.30697  1.0000
  Ti  Ti2489    1.0  0.97561  0.74286  0.30901  1.0000
  Ti  Ti2490    1.0  0.71951  0.90952  0.30901  1.0000
  Ti  Ti2491    1.0  0.96341  0.96825  0.31106  1.0000
  Ti  Ti2492    1.0  0.70732  0.80159  0.31106  1.0000
  Ti  Ti2493    1.0  0.95122  0.86032  0.31310  1.0000
  Ti  Ti2494    1.0  0.69512  0.69365  0.31310  1.0000
  Ti  Ti2495    1.0  0.93902  0.75238  0.31514  1.0000
  Ti  Ti2496    1.0  0.68293  0.91905  0.31514  1.0000
  Ti  Ti2497    1.0  0.92683  0.97778  0.31719  1.0000
  Ti  Ti2498    1.0  0.67073  0.81111  0.31719  1.0000
  Ti  Ti2499    1.0  0.91463  0.86984  0.31923  1.0000
  Ti  Ti2500    1.0  0.65854  0.70317  0.31923  1.0000
  Ti  Ti2501    1.0  0.90244  0.76190  0.32127  1.0000
  Ti  Ti2502    1.0  0.64634  0.92857  0.32127  1.0000
  Ti  Ti2503    1.0  0.89024  0.98730  0.32331  1.0000
  Ti  Ti2504    1.0  0.63415  0.82063  0.32331  1.0000
  Ti  Ti2505    1.0  0.87805  0.87937  0.32536  1.0000
  Ti  Ti2506    1.0  0.62195  0.71270  0.32536  1.0000
  Ti  Ti2507    1.0  0.86585  0.77143  0.32740  1.0000
  Ti  Ti2508    1.0  0.60976  0.93810  0.32740  1.0000
  Ti  Ti2509    1.0  0.85366  0.99683  0.32944  1.0000
  Ti  Ti2510    1.0  0.59756  0.83016  0.32944  1.0000
  Ti  Ti2511    1.0  0.84146  0.88889  0.33148  1.0000
  Ti  Ti2512    1.0  0.58537  0.72222  0.33148  1.0000
  Ti  Ti2513    1.0  0.82927  0.78095  0.33353  1.0000
  Ti  Ti2514    1.0  0.57317  0.94762  0.33353  1.0000
  Ti  Ti2515    1.0  0.81707  0.67302  0.33557  1.0000
  Ti  Ti2516    1.0  0.56098  0.83968  0.33557  1.0000
  Ti  Ti2517    1.0  0.80488  0.89841  0.33761  1.0000
  Ti  Ti2518    1.0  0.54878  0.73175  0.33761  1.0000
  Ti  Ti2519    1.0  0.79268  0.79048  0.33965  1.0000
  Ti  Ti2520    1.0  0.53659  0.95714  0.33965  1.0000
  Ti  Ti2521    1.0  0.78049  0.68254  0.34170  1.0000
  Ti  Ti2522    1.0  0.52439  0.84921  0.34170  1.0000
  Ti  Ti2523    1.0  0.76829  0.90794  0.34374  1.0000
  Ti  Ti2524    1.0  0.51220  0.74127  0.34374  1.0000
  Ti  Ti2525    1.0  0.75610  0.80000  0.34578  1.0000
  Ti  Ti2526    1.0  0.50000  0.96667  0.34578  1.0000
  Ti  Ti2527    1.0  0.74390  0.69206  0.34782  1.0000
  Ti  Ti2528    1.0  1.00000  0.85873  0.34782  1.0000
  Ti  Ti2529    1.0  0.73171  0.91746  0.34987  1.0000
  Ti  Ti2530    1.0  0.98780  0.75079  0.34987  1.0000
  Ti  Ti2531    1.0  0.71951  0.80952  0.35191  1.0000
  Ti  Ti2532    1.0  0.97561  0.97619  0.35191  1.0000
  Ti  Ti2533    1.0  0.70732  0.70159  0.35395  1.0000
  Ti  Ti2534    1.0  0.96341  0.86825  0.35395  1.0000
  Ti  Ti2535    1.0  0.69512  0.92698  0.35600  1.0000
  Ti  Ti2536    1.0  0.95122  0.76032  0.35600  1.0000
  Ti  Ti2537    1.0  0.68293  0.81905  0.35804  1.0000
  Ti  Ti2538    1.0  0.93902  0.98571  0.35804  1.0000
  Ti  Ti2539    1.0  0.67073  0.71111  0.36008  1.0000
  Ti  Ti2540    1.0  0.92683  0.87778  0.36008  1.0000
  Ti  Ti2541    1.0  0.65854  0.93651  0.36212  1.0000
  Ti  Ti2542    1.0  0.91463  0.76984  0.36212  1.0000
  Ti  Ti2543    1.0  0.64634  0.82857  0.36417  1.0000
  Ti  Ti2544    1.0  0.90244  0.99524  0.36417  1.0000
  Ti  Ti2545    1.0  0.63415  0.72063  0.36621  1.0000
  Ti  Ti2546    1.0  0.89024  0.88730  0.36621  1.0000
  Ti  Ti2547    1.0  0.62195  0.94603  0.36825  1.0000
  Ti  Ti2548    1.0  0.87805  0.77937  0.36825  1.0000
  Ti  Ti2549    1.0  0.60976  0.83810  0.37029  1.0000
  Ti  Ti2550    1.0  0.86585  0.67143  0.37029  1.0000
  Ti  Ti2551    1.0  0.59756  0.73016  0.37234  1.0000
  Ti  Ti2552    1.0  0.85366  0.89683  0.37234  1.0000
  Ti  Ti2553    1.0  0.58537  0.95556  0.37438  1.0000
  Ti  Ti2554    1.0  0.84146  0.78889  0.37438  1.0000
  Ti  Ti2555    1.0  0.57317  0.84762  0.37642  1.0000
  Ti  Ti2556    1.0  0.82927  0.68095  0.37642  1.0000
  Ti  Ti2557    1.0  0.56098  0.73968  0.37846  1.0000
  Ti  Ti2558    1.0  0.81707  0.90635  0.37846  1.0000
  Ti  Ti2559    1.0  0.54878  0.96508  0.38051  1.0000
  Ti  Ti2560    1.0  0.80488  0.79841  0.38051  1.0000
  Ti  Ti2561    1.0  0.53659  0.85714  0.38255  1.0000
  Ti  Ti2562    1.0  0.79268  0.69048  0.38255  1.0000
  Ti  Ti2563    1.0  0.52439  0.74921  0.38459  1.0000
  Ti  Ti2564    1.0  0.78049  0.91587  0.38459  1.0000
  Ti  Ti2565    1.0  0.51220  0.97460  0.38663  1.0000
  Ti  Ti2566    1.0  0.76829  0.80794  0.38663  1.0000
  Ti  Ti2567    1.0  0.50000  0.86667  0.38868  1.0000
  Ti  Ti2568    1.0  0.75610  0.70000  0.38868  1.0000
  Ti  Ti2569    1.0  0.00000  0.75873  0.39072  1.0000
  Ti  Ti2570    1.0  0.74390  0.92540  0.39072  1.0000
  Ti  Ti2571    1.0  0.98780  0.98413  0.39276  1.0000
  Ti  Ti2572    1.0  0.73171  0.81746  0.39276  1.0000
  Ti  Ti2573    1.0  0.97561  0.87619  0.39480  1.0000
  Ti  Ti2574    1.0  0.71951  0.70952  0.39480  1.0000
  Ti  Ti2575    1.0  0.96341  0.76825  0.39685  1.0000
  Ti  Ti2576    1.0  0.70732  0.93492  0.39685  1.0000
  Ti  Ti2577    1.0  0.95122  0.99365  0.39889  1.0000
  Ti  Ti2578    1.0  0.69512  0.82698  0.39889  1.0000
  Ti  Ti2579    1.0  0.93902  0.88571  0.40093  1.0000
  Ti  Ti2580    1.0  0.68293  0.71905  0.40093  1.0000
  Ti  Ti2581    1.0  0.92683  0.77778  0.40298  1.0000
  Ti  Ti2582    1.0  0.67073  0.94444  0.40298  1.0000
  Ti  Ti2583    1.0  0.91463  0.66984  0.40502  1.0000
  Ti  Ti2584    1.0  0.65854  0.83651  0.40502  1.0000
  Ti  Ti2585    1.0  0.90244  0.89524  0.40706  1.0000
  Ti  Ti2586    1.0  0.64634  0.72857  0.40706  1.0000
  Ti  Ti2587    1.0  0.89024  0.78730  0.40910  1.0000
  Ti  Ti2588    1.0  0.63415  0.95397  0.40910  1.0000
  Ti  Ti2589    1.0  0.87805  0.67937  0.41115  1.0000
  Ti  Ti2590    1.0  0.62195  0.84603  0.41115  1.0000
  Ti  Ti2591    1.0  0.86585  0.90476  0.41319  1.0000
  Ti  Ti2592    1.0  0.60976  0.73810  0.41319  1.0000
  Ti  Ti2593    1.0  0.85366  0.79683  0.41523  1.0000
  Ti  Ti2594    1.0  0.59756  0.96349  0.41523  1.0000
  Ti  Ti2595    1.0  0.84146  0.68889  0.41727  1.0000
  Ti  Ti2596    1.0  0.58537  0.85556  0.41727  1.0000
  Ti  Ti2597    1.0  0.82927  0.91429  0.41932  1.0000
  Ti  Ti2598    1.0  0.57317  0.74762  0.41932  1.0000
  Ti  Ti2599    1.0  0.81707  0.80635  0.42136  1.0000
  Ti  Ti2600    1.0  0.56098  0.97302  0.42136  1.0000
  Ti  Ti2601    1.0  0.80488  0.69841  0.42340  1.0000
  Ti  Ti2602    1.0  0.54878  0.86508  0.42340  1.0000
  Ti  Ti2603    1.0  0.79268  0.92381  0.42544  1.0000
  Ti  Ti2604    1.0  0.53659  0.75714  0.42544  1.0000
  Ti  Ti2605    1.0  0.78049  0.81587  0.42749  1.0000
  Ti  Ti2606    1.0  0.52439  0.98254  0.42749  1.0000
  Ti  Ti2607    1.0  0.76829  0.70794  0.42953  1.0000
  Ti  Ti2608    1.0  0.51220  0.87460  0.42953  1.0000
  Ti  Ti2609    1.0  0.75610  0.93333  0.43157  1.0000
  Ti  Ti2610    1.0  0.50000  0.76667  0.43157  1.0000
  Ti  Ti2611    1.0  0.74390  0.82540  0.43361  1.0000
  Ti  Ti2612    1.0  1.00000  0.99206  0.43361  1.0000
  Ti  Ti2613    1.0  0.73171  0.71746  0.43566  1.0000
  Ti  Ti2614    1.0  0.98780  0.88413  0.43566  1.0000
  Ti  Ti2615    1.0  0.71951  0.94286  0.43770  1.0000
  Ti  Ti2616    1.0  0.97561  0.77619  0.43770  1.0000
  Ti  Ti2617    1.0  0.70732  0.83492  0.43974  1.0000
  Ti  Ti2618    1.0  0.96341  0.66825  0.43974  1.0000
  Ti  Ti2619    1.0  0.69512  0.72698  0.44179  1.0000
  Ti  Ti2620    1.0  0.95122  0.89365  0.44179  1.0000
  Ti  Ti2621    1.0  0.68293  0.95238  0.44383  1.0000
  Ti  Ti2622    1.0  0.93902  0.78571  0.44383  1.0000
  Ti  Ti2623    1.0  0.67073  0.84444  0.44587  1.0000
  Ti  Ti2624    1.0  0.92683  0.67778  0.44587  1.0000
  Ti  Ti2625    1.0  0.65854  0.73651  0.44791  1.0000
  Ti  Ti2626    1.0  0.91463  0.90317  0.44791  1.0000
  Ti  Ti2627    1.0  0.64634  0.96190  0.44996  1.0000
  Ti  Ti2628    1.0  0.90244  0.79524  0.44996  1.0000
  Ti  Ti2629    1.0  0.63415  0.85397  0.45200  1.0000
  Ti  Ti2630    1.0  0.89024  0.68730  0.45200  1.0000
  Ti  Ti2631    1.0  0.62195  0.74603  0.45404  1.0000
  Ti  Ti2632    1.0  0.87805  0.91270  0.45404  1.0000
  Ti  Ti2633    1.0  0.60976  0.97143  0.45608  1.0000
  Ti  Ti2634    1.0  0.86585  0.80476  0.45608  1.0000
  Ti  Ti2635    1.0  0.59756  0.86349  0.45813  1.0000
  Ti  Ti2636    1.0  0.85366  0.69683  0.45813  1.0000
  Ti  Ti2637    1.0  0.58537  0.75556  0.46017  1.0000
  Ti  Ti2638    1.0  0.84146  0.92222  0.46017  1.0000
  Ti  Ti2639    1.0  0.57317  0.98095  0.46221  1.0000
  Ti  Ti2640    1.0  0.82927  0.81429  0.46221  1.0000
  Ti  Ti2641    1.0  0.56098  0.87302  0.46425  1.0000
  Ti  Ti2642    1.0  0.81707  0.70635  0.46425  1.0000
  Ti  Ti2643    1.0  0.54878  0.76508  0.46630  1.0000
  Ti  Ti2644    1.0  0.80488  0.93175  0.46630  1.0000
  Ti  Ti2645    1.0  0.53659  0.99048  0.46834  1.0000
  Ti  Ti2646    1.0  0.79268  0.82381  0.46834  1.0000
  Ti  Ti2647    1.0  0.52439  0.88254  0.47038  1.0000
  Ti  Ti2648    1.0  0.78049  0.71587  0.47038  1.0000
  Ti  Ti2649    1.0  0.51220  0.77460  0.47242  1.0000
  Ti  Ti2650    1.0  0.76829  0.94127  0.47242  1.0000
  Ti  Ti2651    1.0  0.50000  1.00000  0.47447  1.0000
  Ti  Ti2652    1.0  0.75610  0.83333  0.47447  1.0000
  Ti  Ti2653    1.0  1.00000  0.89206  0.47651  1.0000
  Ti  Ti2654    1.0  0.74390  0.72540  0.47651  1.0000
  Ti  Ti2655    1.0  0.98780  0.78413  0.47855  1.0000
  Ti  Ti2656    1.0  0.73171  0.95079  0.47855  1.0000
  Ti  Ti2657    1.0  0.97561  0.67619  0.48060  1.0000
  Ti  Ti2658    1.0  0.71951  0.84286  0.48060  1.0000
  Ti  Ti2659    1.0  0.96341  0.90159  0.48264  1.0000
  Ti  Ti2660    1.0  0.70732  0.73492  0.48264  1.0000
  Ti  Ti2661    1.0  0.95122  0.79365  0.48468  1.0000
  Ti  Ti2662    1.0  0.69512  0.96032  0.48468  1.0000
  Ti  Ti2663    1.0  0.93902  0.68571  0.48672  1.0000
  Ti  Ti2664    1.0  0.68293  0.85238  0.48672  1.0000
  Ti  Ti2665    1.0  0.92683  0.91111  0.48877  1.0000
  Ti  Ti2666    1.0  0.67073  0.74444  0.48877  1.0000
  Ti  Ti2667    1.0  0.91463  0.80317  0.49081  1.0000
  Ti  Ti2668    1.0  0.65854  0.96984  0.49081  1.0000
  Ti  Ti2669    1.0  0.90244  0.69524  0.49285  1.0000
  Ti  Ti2670    1.0  0.64634  0.86190  0.49285  1.0000
  Ti  Ti2671    1.0  0.89024  0.92063  0.49489  1.0000
  Ti  Ti2672    1.0  0.63415  0.75397  0.49489  1.0000
  Ti  Ti2673    1.0  0.87805  0.81270  0.49694  1.0000
  Ti  Ti2674    1.0  0.62195  0.97937  0.49694  1.0000
  Ti  Ti2675    1.0  0.86585  0.70476  0.49898  1.0000
  Ti  Ti2676    1.0  0.60976  0.87143  0.49898  1.0000
  Ti  Ti2677    1.0  0.00000  0.00000  0.95448  1.0000
  Ti  Ti2678    1.0  0.25610  0.16667  0.95448  1.0000
  Ti  Ti2679    1.0  0.50000  0.22540  0.95244  1.0000
  Ti  Ti2680    1.0  0.24390  0.05873  0.95244  1.0000
  Ti  Ti2681    1.0  0.48780  0.11746  0.95040  1.0000
  Ti  Ti2682    1.0  0.23171  0.28413  0.95040  1.0000
  Ti  Ti2683    1.0  0.47561  0.00952  0.94836  1.0000
  Ti  Ti2684    1.0  0.21951  0.17619  0.94836  1.0000
  Ti  Ti2685    1.0  0.46341  0.23492  0.94631  1.0000
  Ti  Ti2686    1.0  0.20732  0.06825  0.94631  1.0000
  Ti  Ti2687    1.0  0.45122  0.12698  0.94427  1.0000
  Ti  Ti2688    1.0  0.19512  0.29365  0.94427  1.0000
  Ti  Ti2689    1.0  0.43902  0.01905  0.94223  1.0000
  Ti  Ti2690    1.0  0.18293  0.18571  0.94223  1.0000
  Ti  Ti2691    1.0  0.42683  0.24444  0.94019  1.0000
  Ti  Ti2692    1.0  0.17073  0.07778  0.94019  1.0000
  Ti  Ti2693    1.0  0.41463  0.13651  0.93814  1.0000
  Ti  Ti2694    1.0  0.15854  0.30317  0.93814  1.0000
  Ti  Ti2695    1.0  0.40244  0.02857  0.93610  1.0000
  Ti  Ti2696    1.0  0.14634  0.19524  0.93610  1.0000
  Ti  Ti2697    1.0  0.39024  0.25397  0.93406  1.0000
  Ti  Ti2698    1.0  0.13415  0.08730  0.93406  1.0000
  Ti  Ti2699    1.0  0.37805  0.14603  0.93201  1.0000
  Ti  Ti2700    1.0  0.12195  0.31270  0.93201  1.0000
  Ti  Ti2701    1.0  0.36585  0.03810  0.92997  1.0000
  Ti  Ti2702    1.0  0.10976  0.20476  0.92997  1.0000
  Ti  Ti2703    1.0  0.35366  0.26349  0.92793  1.0000
  Ti  Ti2704    1.0  0.09756  0.09683  0.92793  1.0000
  Ti  Ti2705    1.0  0.34146  0.15556  0.92589  1.0000
  Ti  Ti2706    1.0  0.08537  0.32222  0.92589  1.0000
  Ti  Ti2707    1.0  0.32927  0.04762  0.92384  1.0000
  Ti  Ti2708    1.0  0.07317  0.21429  0.92384  1.0000
  Ti  Ti2709    1.0  0.31707  0.27302  0.92180  1.0000
  Ti  Ti2710    1.0  0.06098  0.10635  0.92180  1.0000
  Ti  Ti2711    1.0  0.30488  0.16508  0.91976  1.0000
  Ti  Ti2712    1.0  0.04878  0.33175  0.91976  1.0000
  Ti  Ti2713    1.0  0.29268  0.05714  0.91772  1.0000
  Ti  Ti2714    1.0  0.03659  0.22381  0.91772  1.0000
  Ti  Ti2715    1.0  0.28049  0.28254  0.91567  1.0000
  Ti  Ti2716    1.0  0.02439  0.11587  0.91567  1.0000
  Ti  Ti2717    1.0  0.26829  0.17460  0.91363  1.0000
  Ti  Ti2718    1.0  0.01220  0.00794  0.91363  1.0000
  Ti  Ti2719    1.0  0.25610  0.06667  0.91159  1.0000
  Ti  Ti2720    1.0  0.00000  0.23333  0.91159  1.0000
  Ti  Ti2721    1.0  0.24390  0.29206  0.90955  1.0000
  Ti  Ti2722    1.0  0.50000  0.12540  0.90955  1.0000
  Ti  Ti2723    1.0  0.23171  0.18413  0.90750  1.0000
  Ti  Ti2724    1.0  0.48780  0.01746  0.90750  1.0000
  Ti  Ti2725    1.0  0.21951  0.07619  0.90546  1.0000
  Ti  Ti2726    1.0  0.47561  0.24286  0.90546  1.0000
  Ti  Ti2727    1.0  0.20732  0.30159  0.90342  1.0000
  Ti  Ti2728    1.0  0.46341  0.13492  0.90342  1.0000
  Ti  Ti2729    1.0  0.19512  0.19365  0.90138  1.0000
  Ti  Ti2730    1.0  0.45122  0.02698  0.90138  1.0000
  Ti  Ti2731    1.0  0.18293  0.08571  0.89933  1.0000
  Ti  Ti2732    1.0  0.43902  0.25238  0.89933  1.0000
  Ti  Ti2733    1.0  0.17073  0.31111  0.89729  1.0000
  Ti  Ti2734    1.0  0.42683  0.14444  0.89729  1.0000
  Ti  Ti2735    1.0  0.15854  0.20317  0.89525  1.0000
  Ti  Ti2736    1.0  0.41463  0.03651  0.89525  1.0000
  Ti  Ti2737    1.0  0.14634  0.09524  0.89321  1.0000
  Ti  Ti2738    1.0  0.40244  0.26190  0.89321  1.0000
  Ti  Ti2739    1.0  0.13415  0.32063  0.89116  1.0000
  Ti  Ti2740    1.0  0.39024  0.15397  0.89116  1.0000
  Ti  Ti2741    1.0  0.12195  0.21270  0.88912  1.0000
  Ti  Ti2742    1.0  0.37805  0.04603  0.88912  1.0000
  Ti  Ti2743    1.0  0.10976  0.10476  0.88708  1.0000
  Ti  Ti2744    1.0  0.36585  0.27143  0.88708  1.0000
  Ti  Ti2745    1.0  0.09756  0.33016  0.88503  1.0000
  Ti  Ti2746    1.0  0.35366  0.16349  0.88503  1.0000
  Ti  Ti2747    1.0  0.08537  0.22222  0.88299  1.0000
  Ti  Ti2748    1.0  0.34146  0.05556  0.88299  1.0000
  Ti  Ti2749    1.0  0.07317  0.11429  0.88095  1.0000
  Ti  Ti2750    1.0  0.32927  0.28095  0.88095  1.0000
  Ti  Ti2751    1.0  0.06098  0.00635  0.87891  1.0000
  Ti  Ti2752    1.0  0.31707  0.17302  0.87891  1.0000
  Ti  Ti2753    1.0  0.04878  0.23175  0.87686  1.0000
  Ti  Ti2754    1.0  0.30488  0.06508  0.87686  1.0000
  Ti  Ti2755    1.0  0.03659  0.12381  0.87482  1.0000
  Ti  Ti2756    1.0  0.29268  0.29048  0.87482  1.0000
  Ti  Ti2757    1.0  0.02439  0.01587  0.87278  1.0000
  Ti  Ti2758    1.0  0.28049  0.18254  0.87278  1.0000
  Ti  Ti2759    1.0  0.01220  0.24127  0.87074  1.0000
  Ti  Ti2760    1.0  0.26829  0.07460  0.87074  1.0000
  Ti  Ti2761    1.0  0.00000  0.13333  0.86869  1.0000
  Ti  Ti2762    1.0  0.25610  0.30000  0.86869  1.0000
  Ti  Ti2763    1.0  0.50000  0.02540  0.86665  1.0000
  Ti  Ti2764    1.0  0.24390  0.19206  0.86665  1.0000
  Ti  Ti2765    1.0  0.48780  0.25079  0.86461  1.0000
  Ti  Ti2766    1.0  0.23171  0.08413  0.86461  1.0000
  Ti  Ti2767    1.0  0.47561  0.14286  0.86257  1.0000
  Ti  Ti2768    1.0  0.21951  0.30952  0.86257  1.0000
  Ti  Ti2769    1.0  0.46341  0.03492  0.86052  1.0000
  Ti  Ti2770    1.0  0.20732  0.20159  0.86052  1.0000
  Ti  Ti2771    1.0  0.45122  0.26032  0.85848  1.0000
  Ti  Ti2772    1.0  0.19512  0.09365  0.85848  1.0000
  Ti  Ti2773    1.0  0.43902  0.15238  0.85644  1.0000
  Ti  Ti2774    1.0  0.18293  0.31905  0.85644  1.0000
  Ti  Ti2775    1.0  0.42683  0.04444  0.85440  1.0000
  Ti  Ti2776    1.0  0.17073  0.21111  0.85440  1.0000
  Ti  Ti2777    1.0  0.41463  0.26984  0.85235  1.0000
  Ti  Ti2778    1.0  0.15854  0.10317  0.85235  1.0000
  Ti  Ti2779    1.0  0.40244  0.16190  0.85031  1.0000
  Ti  Ti2780    1.0  0.14634  0.32857  0.85031  1.0000
  Ti  Ti2781    1.0  0.39024  0.05397  0.84827  1.0000
  Ti  Ti2782    1.0  0.13415  0.22063  0.84827  1.0000
  Ti  Ti2783    1.0  0.37805  0.27937  0.84622  1.0000
  Ti  Ti2784    1.0  0.12195  0.11270  0.84622  1.0000
  Ti  Ti2785    1.0  0.36585  0.17143  0.84418  1.0000
  Ti  Ti2786    1.0  0.10976  0.00476  0.84418  1.0000
  Ti  Ti2787    1.0  0.35366  0.06349  0.84214  1.0000
  Ti  Ti2788    1.0  0.09756  0.23016  0.84214  1.0000
  Ti  Ti2789    1.0  0.34146  0.28889  0.84010  1.0000
  Ti  Ti2790    1.0  0.08537  0.12222  0.84010  1.0000
  Ti  Ti2791    1.0  0.32927  0.18095  0.83805  1.0000
  Ti  Ti2792    1.0  0.07317  0.01429  0.83805  1.0000
  Ti  Ti2793    1.0  0.31707  0.07302  0.83601  1.0000
  Ti  Ti2794    1.0  0.06098  0.23968  0.83601  1.0000
  Ti  Ti2795    1.0  0.30488  0.29841  0.83397  1.0000
  Ti  Ti2796    1.0  0.04878  0.13175  0.83397  1.0000
  Ti  Ti2797    1.0  0.29268  0.19048  0.83193  1.0000
  Ti  Ti2798    1.0  0.03659  0.02381  0.83193  1.0000
  Ti  Ti2799    1.0  0.28049  0.08254  0.82988  1.0000
  Ti  Ti2800    1.0  0.02439  0.24921  0.82988  1.0000
  Ti  Ti2801    1.0  0.26829  0.30794  0.82784  1.0000
  Ti  Ti2802    1.0  0.01220  0.14127  0.82784  1.0000
  Ti  Ti2803    1.0  0.25610  0.20000  0.82580  1.0000
  Ti  Ti2804    1.0  0.00000  0.03333  0.82580  1.0000
  Ti  Ti2805    1.0  0.24390  0.09206  0.82376  1.0000
  Ti  Ti2806    1.0  0.50000  0.25873  0.82376  1.0000
  Ti  Ti2807    1.0  0.23171  0.31746  0.82171  1.0000
  Ti  Ti2808    1.0  0.48780  0.15079  0.82171  1.0000
  Ti  Ti2809    1.0  0.21951  0.20952  0.81967  1.0000
  Ti  Ti2810    1.0  0.47561  0.04286  0.81967  1.0000
  Ti  Ti2811    1.0  0.20732  0.10159  0.81763  1.0000
  Ti  Ti2812    1.0  0.46341  0.26825  0.81763  1.0000
  Ti  Ti2813    1.0  0.19512  0.32698  0.81559  1.0000
  Ti  Ti2814    1.0  0.45122  0.16032  0.81559  1.0000
  Ti  Ti2815    1.0  0.18293  0.21905  0.81354  1.0000
  Ti  Ti2816    1.0  0.43902  0.05238  0.81354  1.0000
  Ti  Ti2817    1.0  0.17073  0.11111  0.81150  1.0000
  Ti  Ti2818    1.0  0.42683  0.27778  0.81150  1.0000
  Ti  Ti2819    1.0  0.15854  0.00317  0.80946  1.0000
  Ti  Ti2820    1.0  0.41463  0.16984  0.80946  1.0000
  Ti  Ti2821    1.0  0.14634  0.22857  0.80741  1.0000
  Ti  Ti2822    1.0  0.40244  0.06190  0.80741  1.0000
  Ti  Ti2823    1.0  0.13415  0.12063  0.80537  1.0000
  Ti  Ti2824    1.0  0.39024  0.28730  0.80537  1.0000
  Ti  Ti2825    1.0  0.12195  0.01270  0.80333  1.0000
  Ti  Ti2826    1.0  0.37805  0.17937  0.80333  1.0000
  Ti  Ti2827    1.0  0.10976  0.23810  0.80129  1.0000
  Ti  Ti2828    1.0  0.36585  0.07143  0.80129  1.0000
  Ti  Ti2829    1.0  0.09756  0.13016  0.79924  1.0000
  Ti  Ti2830    1.0  0.35366  0.29683  0.79924  1.0000
  Ti  Ti2831    1.0  0.08537  0.02222  0.79720  1.0000
  Ti  Ti2832    1.0  0.34146  0.18889  0.79720  1.0000
  Ti  Ti2833    1.0  0.07317  0.24762  0.79516  1.0000
  Ti  Ti2834    1.0  0.32927  0.08095  0.79516  1.0000
  Ti  Ti2835    1.0  0.06098  0.13968  0.79312  1.0000
  Ti  Ti2836    1.0  0.31707  0.30635  0.79312  1.0000
  Ti  Ti2837    1.0  0.04878  0.03175  0.79107  1.0000
  Ti  Ti2838    1.0  0.30488  0.19841  0.79107  1.0000
  Ti  Ti2839    1.0  0.03659  0.25714  0.78903  1.0000
  Ti  Ti2840    1.0  0.29268  0.09048  0.78903  1.0000
  Ti  Ti2841    1.0  0.02439  0.14921  0.78699  1.0000
  Ti  Ti2842    1.0  0.28049  0.31587  0.78699  1.0000
  Ti  Ti2843    1.0  0.01220  0.04127  0.78495  1.0000
  Ti  Ti2844    1.0  0.26829  0.20794  0.78495  1.0000
  Ti  Ti2845    1.0  0.00000  0.26667  0.78290  1.0000
  Ti  Ti2846    1.0  0.25610  0.10000  0.78290  1.0000
  Ti  Ti2847    1.0  0.50000  0.15873  0.78086  1.0000
  Ti  Ti2848    1.0  0.24390  0.32540  0.78086  1.0000
  Ti  Ti2849    1.0  0.48780  0.05079  0.77882  1.0000
  Ti  Ti2850    1.0  0.23171  0.21746  0.77882  1.0000
  Ti  Ti2851    1.0  0.47561  0.27619  0.77678  1.0000
  Ti  Ti2852    1.0  0.21951  0.10952  0.77678  1.0000
  Ti  Ti2853    1.0  0.46341  0.16825  0.77473  1.0000
  Ti  Ti2854    1.0  0.20732  0.00159  0.77473  1.0000
  Ti  Ti2855    1.0  0.45122  0.06032  0.77269  1.0000
  Ti  Ti2856    1.0  0.19512  0.22698  0.77269  1.0000
  Ti  Ti2857    1.0  0.43902  0.28571  0.77065  1.0000
  Ti  Ti2858    1.0  0.18293  0.11905  0.77065  1.0000
  Ti  Ti2859    1.0  0.42683  0.17778  0.76861  1.0000
  Ti  Ti2860    1.0  0.17073  0.01111  0.76861  1.0000
  Ti  Ti2861    1.0  0.41463  0.06984  0.76656  1.0000
  Ti  Ti2862    1.0  0.15854  0.23651  0.76656  1.0000
  Ti  Ti2863    1.0  0.40244  0.29524  0.76452  1.0000
  Ti  Ti2864    1.0  0.14634  0.12857  0.76452  1.0000
  Ti  Ti2865    1.0  0.39024  0.18730  0.76248  1.0000
  Ti  Ti2866    1.0  0.13415  0.02063  0.76248  1.0000
  Ti  Ti2867    1.0  0.37805  0.07937  0.76043  1.0000
  Ti  Ti2868    1.0  0.12195  0.24603  0.76043  1.0000
  Ti  Ti2869    1.0  0.36585  0.30476  0.75839  1.0000
  Ti  Ti2870    1.0  0.10976  0.13810  0.75839  1.0000
  Ti  Ti2871    1.0  0.35366  0.19683  0.75635  1.0000
  Ti  Ti2872    1.0  0.09756  0.03016  0.75635  1.0000
  Ti  Ti2873    1.0  0.34146  0.08889  0.75431  1.0000
  Ti  Ti2874    1.0  0.08537  0.25556  0.75431  1.0000
  Ti  Ti2875    1.0  0.32927  0.31429  0.75226  1.0000
  Ti  Ti2876    1.0  0.07317  0.14762  0.75226  1.0000
  Ti  Ti2877    1.0  0.31707  0.20635  0.75022  1.0000
  Ti  Ti2878    1.0  0.06098  0.03968  0.75022  1.0000
  Ti  Ti2879    1.0  0.30488  0.09841  0.74818  1.0000
  Ti  Ti2880    1.0  0.04878  0.26508  0.74818  1.0000
  Ti  Ti2881    1.0  0.29268  0.32381  0.74614  1.0000
  Ti  Ti2882    1.0  0.03659  0.15714  0.74614  1.0000
  Ti  Ti2883    1.0  0.28049  0.21587  0.74409  1.0000
  Ti  Ti2884    1.0  0.02439  0.04921  0.74409  1.0000
  Ti  Ti2885    1.0  0.26829  0.10794  0.74205  1.0000
  Ti  Ti2886    1.0  0.01220  0.27460  0.74205  1.0000
  Ti  Ti2887    1.0  0.25610  0.33333  0.74001  1.0000
  Ti  Ti2888    1.0  0.00000  0.16667  0.74001  1.0000
  Ti  Ti2889    1.0  0.24390  0.22540  0.73797  1.0000
  Ti  Ti2890    1.0  0.50000  0.05873  0.73797  1.0000
  Ti  Ti2891    1.0  0.23171  0.11746  0.73592  1.0000
  Ti  Ti2892    1.0  0.48780  0.28413  0.73592  1.0000
  Ti  Ti2893    1.0  0.21951  0.00952  0.73388  1.0000
  Ti  Ti2894    1.0  0.47561  0.17619  0.73388  1.0000
  Ti  Ti2895    1.0  0.20732  0.23492  0.73184  1.0000
  Ti  Ti2896    1.0  0.46341  0.06825  0.73184  1.0000
  Ti  Ti2897    1.0  0.19512  0.12698  0.72980  1.0000
  Ti  Ti2898    1.0  0.45122  0.29365  0.72980  1.0000
  Ti  Ti2899    1.0  0.18293  0.01905  0.72775  1.0000
  Ti  Ti2900    1.0  0.43902  0.18571  0.72775  1.0000
  Ti  Ti2901    1.0  0.17073  0.24444  0.72571  1.0000
  Ti  Ti2902    1.0  0.42683  0.07778  0.72571  1.0000
  Ti  Ti2903    1.0  0.15854  0.13651  0.72367  1.0000
  Ti  Ti2904    1.0  0.41463  0.30317  0.72367  1.0000
  Ti  Ti2905    1.0  0.14634  0.02857  0.72162  1.0000
  Ti  Ti2906    1.0  0.40244  0.19524  0.72162  1.0000
  Ti  Ti2907    1.0  0.13415  0.25397  0.71958  1.0000
  Ti  Ti2908    1.0  0.39024  0.08730  0.71958  1.0000
  Ti  Ti2909    1.0  0.12195  0.14603  0.71754  1.0000
  Ti  Ti2910    1.0  0.37805  0.31270  0.71754  1.0000
  Ti  Ti2911    1.0  0.10976  0.03810  0.71550  1.0000
  Ti  Ti2912    1.0  0.36585  0.20476  0.71550  1.0000
  Ti  Ti2913    1.0  0.09756  0.26349  0.71345  1.0000
  Ti  Ti2914    1.0  0.35366  0.09683  0.71345  1.0000
  Ti  Ti2915    1.0  0.08537  0.15556  0.71141  1.0000
  Ti  Ti2916    1.0  0.34146  0.32222  0.71141  1.0000
  Ti  Ti2917    1.0  0.07317  0.04762  0.70937  1.0000
  Ti  Ti2918    1.0  0.32927  0.21429  0.70937  1.0000
  Ti  Ti2919    1.0  0.06098  0.27302  0.70733  1.0000
  Ti  Ti2920    1.0  0.31707  0.10635  0.70733  1.0000
  Ti  Ti2921    1.0  0.04878  0.16508  0.70528  1.0000
  Ti  Ti2922    1.0  0.30488  0.33175  0.70528  1.0000
  Ti  Ti2923    1.0  0.03659  0.05714  0.70324  1.0000
  Ti  Ti2924    1.0  0.29268  0.22381  0.70324  1.0000
  Ti  Ti2925    1.0  0.02439  0.28254  0.70120  1.0000
  Ti  Ti2926    1.0  0.28049  0.11587  0.70120  1.0000
  Ti  Ti2927    1.0  0.01220  0.17460  0.69916  1.0000
  Ti  Ti2928    1.0  0.26829  0.00794  0.69916  1.0000
  Ti  Ti2929    1.0  0.00000  0.06667  0.69711  1.0000
  Ti  Ti2930    1.0  0.25610  0.23333  0.69711  1.0000
  Ti  Ti2931    1.0  0.50000  0.29206  0.69507  1.0000
  Ti  Ti2932    1.0  0.24390  0.12540  0.69507  1.0000
  Ti  Ti2933    1.0  0.48780  0.18413  0.69303  1.0000
  Ti  Ti2934    1.0  0.23171  0.01746  0.69303  1.0000
  Ti  Ti2935    1.0  0.47561  0.07619  0.69099  1.0000
  Ti  Ti2936    1.0  0.21951  0.24286  0.69099  1.0000
  Ti  Ti2937    1.0  0.46341  0.30159  0.68894  1.0000
  Ti  Ti2938    1.0  0.20732  0.13492  0.68894  1.0000
  Ti  Ti2939    1.0  0.45122  0.19365  0.68690  1.0000
  Ti  Ti2940    1.0  0.19512  0.02698  0.68690  1.0000
  Ti  Ti2941    1.0  0.43902  0.08571  0.68486  1.0000
  Ti  Ti2942    1.0  0.18293  0.25238  0.68486  1.0000
  Ti  Ti2943    1.0  0.42683  0.31111  0.68281  1.0000
  Ti  Ti2944    1.0  0.17073  0.14444  0.68281  1.0000
  Ti  Ti2945    1.0  0.41463  0.20317  0.68077  1.0000
  Ti  Ti2946    1.0  0.15854  0.03651  0.68077  1.0000
  Ti  Ti2947    1.0  0.40244  0.09524  0.67873  1.0000
  Ti  Ti2948    1.0  0.14634  0.26190  0.67873  1.0000
  Ti  Ti2949    1.0  0.39024  0.32063  0.67669  1.0000
  Ti  Ti2950    1.0  0.13415  0.15397  0.67669  1.0000
  Ti  Ti2951    1.0  0.37805  0.21270  0.67464  1.0000
  Ti  Ti2952    1.0  0.12195  0.04603  0.67464  1.0000
  Ti  Ti2953    1.0  0.36585  0.10476  0.67260  1.0000
  Ti  Ti2954    1.0  0.10976  0.27143  0.67260  1.0000
  Ti  Ti2955    1.0  0.35366  0.33016  0.67056  1.0000
  Ti  Ti2956    1.0  0.09756  0.16349  0.67056  1.0000
  Ti  Ti2957    1.0  0.34146  0.22222  0.66852  1.0000
  Ti  Ti2958    1.0  0.08537  0.05556  0.66852  1.0000
  Ti  Ti2959    1.0  0.32927  0.11429  0.66647  1.0000
  Ti  Ti2960    1.0  0.07317  0.28095  0.66647  1.0000
  Ti  Ti2961    1.0  0.31707  0.00635  0.66443  1.0000
  Ti  Ti2962    1.0  0.06098  0.17302  0.66443  1.0000
  Ti  Ti2963    1.0  0.30488  0.23175  0.66239  1.0000
  Ti  Ti2964    1.0  0.04878  0.06508  0.66239  1.0000
  Ti  Ti2965    1.0  0.29268  0.12381  0.66035  1.0000
  Ti  Ti2966    1.0  0.03659  0.29048  0.66035  1.0000
  Ti  Ti2967    1.0  0.28049  0.01587  0.65830  1.0000
  Ti  Ti2968    1.0  0.02439  0.18254  0.65830  1.0000
  Ti  Ti2969    1.0  0.26829  0.24127  0.65626  1.0000
  Ti  Ti2970    1.0  0.01220  0.07460  0.65626  1.0000
  Ti  Ti2971    1.0  0.25610  0.13333  0.65422  1.0000
  Ti  Ti2972    1.0  0.00000  0.30000  0.65422  1.0000
  Ti  Ti2973    1.0  0.24390  0.02540  0.65218  1.0000
  Ti  Ti2974    1.0  0.50000  0.19206  0.65218  1.0000
  Ti  Ti2975    1.0  0.23171  0.25079  0.65013  1.0000
  Ti  Ti2976    1.0  0.48780  0.08413  0.65013  1.0000
  Ti  Ti2977    1.0  0.21951  0.14286  0.64809  1.0000
  Ti  Ti2978    1.0  0.47561  0.30952  0.64809  1.0000
  Ti  Ti2979    1.0  0.20732  0.03492  0.64605  1.0000
  Ti  Ti2980    1.0  0.46341  0.20159  0.64605  1.0000
  Ti  Ti2981    1.0  0.19512  0.26032  0.64400  1.0000
  Ti  Ti2982    1.0  0.45122  0.09365  0.64400  1.0000
  Ti  Ti2983    1.0  0.18293  0.15238  0.64196  1.0000
  Ti  Ti2984    1.0  0.43902  0.31905  0.64196  1.0000
  Ti  Ti2985    1.0  0.17073  0.04444  0.63992  1.0000
  Ti  Ti2986    1.0  0.42683  0.21111  0.63992  1.0000
  Ti  Ti2987    1.0  0.15854  0.26984  0.63788  1.0000
  Ti  Ti2988    1.0  0.41463  0.10317  0.63788  1.0000
  Ti  Ti2989    1.0  0.14634  0.16190  0.63583  1.0000
  Ti  Ti2990    1.0  0.40244  0.32857  0.63583  1.0000
  Ti  Ti2991    1.0  0.13415  0.05397  0.63379  1.0000
  Ti  Ti2992    1.0  0.39024  0.22063  0.63379  1.0000
  Ti  Ti2993    1.0  0.12195  0.27937  0.63175  1.0000
  Ti  Ti2994    1.0  0.37805  0.11270  0.63175  1.0000
  Ti  Ti2995    1.0  0.10976  0.17143  0.62971  1.0000
  Ti  Ti2996    1.0  0.36585  0.00476  0.62971  1.0000
  Ti  Ti2997    1.0  0.09756  0.06349  0.62766  1.0000
  Ti  Ti2998    1.0  0.35366  0.23016  0.62766  1.0000
  Ti  Ti2999    1.0  0.08537  0.28889  0.62562  1.0000
  Ti  Ti3000    1.0  0.34146  0.12222  0.62562  1.0000
  Ti  Ti3001    1.0  0.07317  0.18095  0.62358  1.0000
  Ti  Ti3002    1.0  0.32927  0.01429  0.62358  1.0000
  Ti  Ti3003    1.0  0.06098  0.07302  0.62154  1.0000
  Ti  Ti3004    1.0  0.31707  0.23968  0.62154  1.0000
  Ti  Ti3005    1.0  0.04878  0.29841  0.61949  1.0000
  Ti  Ti3006    1.0  0.30488  0.13175  0.61949  1.0000
  Ti  Ti3007    1.0  0.03659  0.19048  0.61745  1.0000
  Ti  Ti3008    1.0  0.29268  0.02381  0.61745  1.0000
  Ti  Ti3009    1.0  0.02439  0.08254  0.61541  1.0000
  Ti  Ti3010    1.0  0.28049  0.24921  0.61541  1.0000
  Ti  Ti3011    1.0  0.01220  0.30794  0.61337  1.0000
  Ti  Ti3012    1.0  0.26829  0.14127  0.61337  1.0000
  Ti  Ti3013    1.0  0.00000  0.20000  0.61132  1.0000
  Ti  Ti3014    1.0  0.25610  0.03333  0.61132  1.0000
  Ti  Ti3015    1.0  0.50000  0.09206  0.60928  1.0000
  Ti  Ti3016    1.0  0.24390  0.25873  0.60928  1.0000
  Ti  Ti3017    1.0  0.48780  0.31746  0.60724  1.0000
  Ti  Ti3018    1.0  0.23171  0.15079  0.60724  1.0000
  Ti  Ti3019    1.0  0.47561  0.20952  0.60520  1.0000
  Ti  Ti3020    1.0  0.21951  0.04286  0.60520  1.0000
  Ti  Ti3021    1.0  0.46341  0.10159  0.60315  1.0000
  Ti  Ti3022    1.0  0.20732  0.26825  0.60315  1.0000
  Ti  Ti3023    1.0  0.45122  0.32698  0.60111  1.0000
  Ti  Ti3024    1.0  0.19512  0.16032  0.60111  1.0000
  Ti  Ti3025    1.0  0.43902  0.21905  0.59907  1.0000
  Ti  Ti3026    1.0  0.18293  0.05238  0.59907  1.0000
  Ti  Ti3027    1.0  0.42683  0.11111  0.59702  1.0000
  Ti  Ti3028    1.0  0.17073  0.27778  0.59702  1.0000
  Ti  Ti3029    1.0  0.41463  0.00317  0.59498  1.0000
  Ti  Ti3030    1.0  0.15854  0.16984  0.59498  1.0000
  Ti  Ti3031    1.0  0.40244  0.22857  0.59294  1.0000
  Ti  Ti3032    1.0  0.14634  0.06190  0.59294  1.0000
  Ti  Ti3033    1.0  0.39024  0.12063  0.59090  1.0000
  Ti  Ti3034    1.0  0.13415  0.28730  0.59090  1.0000
  Ti  Ti3035    1.0  0.37805  0.01270  0.58885  1.0000
  Ti  Ti3036    1.0  0.12195  0.17937  0.58885  1.0000
  Ti  Ti3037    1.0  0.36585  0.23810  0.58681  1.0000
  Ti  Ti3038    1.0  0.10976  0.07143  0.58681  1.0000
  Ti  Ti3039    1.0  0.35366  0.13016  0.58477  1.0000
  Ti  Ti3040    1.0  0.09756  0.29683  0.58477  1.0000
  Ti  Ti3041    1.0  0.34146  0.02222  0.58273  1.0000
  Ti  Ti3042    1.0  0.08537  0.18889  0.58273  1.0000
  Ti  Ti3043    1.0  0.32927  0.24762  0.58068  1.0000
  Ti  Ti3044    1.0  0.07317  0.08095  0.58068  1.0000
  Ti  Ti3045    1.0  0.31707  0.13968  0.57864  1.0000
  Ti  Ti3046    1.0  0.06098  0.30635  0.57864  1.0000
  Ti  Ti3047    1.0  0.30488  0.03175  0.57660  1.0000
  Ti  Ti3048    1.0  0.04878  0.19841  0.57660  1.0000
  Ti  Ti3049    1.0  0.29268  0.25714  0.57456  1.0000
  Ti  Ti3050    1.0  0.03659  0.09048  0.57456  1.0000
  Ti  Ti3051    1.0  0.28049  0.14921  0.57251  1.0000
  Ti  Ti3052    1.0  0.02439  0.31587  0.57251  1.0000
  Ti  Ti3053    1.0  0.26829  0.04127  0.57047  1.0000
  Ti  Ti3054    1.0  0.01220  0.20794  0.57047  1.0000
  Ti  Ti3055    1.0  0.25610  0.26667  0.56843  1.0000
  Ti  Ti3056    1.0  0.00000  0.10000  0.56843  1.0000
  Ti  Ti3057    1.0  0.24390  0.15873  0.56639  1.0000
  Ti  Ti3058    1.0  0.50000  0.32540  0.56639  1.0000
  Ti  Ti3059    1.0  0.23171  0.05079  0.56434  1.0000
  Ti  Ti3060    1.0  0.48780  0.21746  0.56434  1.0000
  Ti  Ti3061    1.0  0.21951  0.27619  0.56230  1.0000
  Ti  Ti3062    1.0  0.47561  0.10952  0.56230  1.0000
  Ti  Ti3063    1.0  0.20732  0.16825  0.56026  1.0000
  Ti  Ti3064    1.0  0.46341  0.00159  0.56026  1.0000
  Ti  Ti3065    1.0  0.19512  0.06032  0.55821  1.0000
  Ti  Ti3066    1.0  0.45122  0.22698  0.55821  1.0000
  Ti  Ti3067    1.0  0.18293  0.28571  0.55617  1.0000
  Ti  Ti3068    1.0  0.43902  0.11905  0.55617  1.0000
  Ti  Ti3069    1.0  0.17073  0.17778  0.55413  1.0000
  Ti  Ti3070    1.0  0.42683  0.01111  0.55413  1.0000
  Ti  Ti3071    1.0  0.15854  0.06984  0.55209  1.0000
  Ti  Ti3072    1.0  0.41463  0.23651  0.55209  1.0000
  Ti  Ti3073    1.0  0.14634  0.29524  0.55004  1.0000
  Ti  Ti3074    1.0  0.40244  0.12857  0.55004  1.0000
  Ti  Ti3075    1.0  0.13415  0.18730  0.54800  1.0000
  Ti  Ti3076    1.0  0.39024  0.02063  0.54800  1.0000
  Ti  Ti3077    1.0  0.12195  0.07937  0.54596  1.0000
  Ti  Ti3078    1.0  0.37805  0.24603  0.54596  1.0000
  Ti  Ti3079    1.0  0.10976  0.30476  0.54392  1.0000
  Ti  Ti3080    1.0  0.36585  0.13810  0.54392  1.0000
  Ti  Ti3081    1.0  0.09756  0.19683  0.54187  1.0000
  Ti  Ti3082    1.0  0.35366  0.03016  0.54187  1.0000
  Ti  Ti3083    1.0  0.08537  0.08889  0.53983  1.0000
  Ti  Ti3084    1.0  0.34146  0.25556  0.53983  1.0000
  Ti  Ti3085    1.0  0.07317  0.31429  0.53779  1.0000
  Ti  Ti3086    1.0  0.32927  0.14762  0.53779  1.0000
  Ti  Ti3087    1.0  0.06098  0.20635  0.53575  1.0000
  Ti  Ti3088    1.0  0.31707  0.03968  0.53575  1.0000
  Ti  Ti3089    1.0  0.04878  0.09841  0.53370  1.0000
  Ti  Ti3090    1.0  0.30488  0.26508  0.53370  1.0000
  Ti  Ti3091    1.0  0.03659  0.32381  0.53166  1.0000
  Ti  Ti3092    1.0  0.29268  0.15714  0.53166  1.0000
  Ti  Ti3093    1.0  0.02439  0.21587  0.52962  1.0000
  Ti  Ti3094    1.0  0.28049  0.04921  0.52962  1.0000
  Ti  Ti3095    1.0  0.01220  0.10794  0.52758  1.0000
  Ti  Ti3096    1.0  0.26829  0.27460  0.52758  1.0000
  Ti  Ti3097    1.0  0.00000  0.33333  0.52553  1.0000
  Ti  Ti3098    1.0  0.25610  0.16667  0.52553  1.0000
  Ti  Ti3099    1.0  0.50000  0.22540  0.52349  1.0000
  Ti  Ti3100    1.0  0.24390  0.05873  0.52349  1.0000
  Ti  Ti3101    1.0  0.48780  0.11746  0.52145  1.0000
  Ti  Ti3102    1.0  0.23171  0.28413  0.52145  1.0000
  Ti  Ti3103    1.0  0.47561  0.00952  0.51940  1.0000
  Ti  Ti3104    1.0  0.21951  0.17619  0.51940  1.0000
  Ti  Ti3105    1.0  0.46341  0.23492  0.51736  1.0000
  Ti  Ti3106    1.0  0.20732  0.06825  0.51736  1.0000
  Ti  Ti3107    1.0  0.45122  0.12698  0.51532  1.0000
  Ti  Ti3108    1.0  0.19512  0.29365  0.51532  1.0000
  Ti  Ti3109    1.0  0.43902  0.01905  0.51328  1.0000
  Ti  Ti3110    1.0  0.18293  0.18571  0.51328  1.0000
  Ti  Ti3111    1.0  0.42683  0.24444  0.51123  1.0000
  Ti  Ti3112    1.0  0.17073  0.07778  0.51123  1.0000
  Ti  Ti3113    1.0  0.41463  0.13651  0.50919  1.0000
  Ti  Ti3114    1.0  0.15854  0.30317  0.50919  1.0000
  Ti  Ti3115    1.0  0.40244  0.02857  0.50715  1.0000
  Ti  Ti3116    1.0  0.14634  0.19524  0.50715  1.0000
  Ti  Ti3117    1.0  0.39024  0.25397  0.50511  1.0000
  Ti  Ti3118    1.0  0.13415  0.08730  0.50511  1.0000
  Ti  Ti3119    1.0  0.37805  0.14603  0.50306  1.0000
  Ti  Ti3120    1.0  0.12195  0.31270  0.50306  1.0000
  Ti  Ti3121    1.0  0.36585  0.03810  0.50102  1.0000
  Ti  Ti3122    1.0  0.10976  0.20476  0.50102  1.0000
  Ti  Ti3123    1.0  0.00000  0.33333  0.95448  1.0000
  Ti  Ti3124    1.0  0.25610  0.50000  0.95448  1.0000
  Ti  Ti3125    1.0  0.50000  0.55873  0.95244  1.0000
  Ti  Ti3126    1.0  0.24390  0.39206  0.95244  1.0000
  Ti  Ti3127    1.0  0.48780  0.45079  0.95040  1.0000
  Ti  Ti3128    1.0  0.23171  0.61746  0.95040  1.0000
  Ti  Ti3129    1.0  0.47561  0.34286  0.94836  1.0000
  Ti  Ti3130    1.0  0.21951  0.50952  0.94836  1.0000
  Ti  Ti3131    1.0  0.46341  0.56825  0.94631  1.0000
  Ti  Ti3132    1.0  0.20732  0.40159  0.94631  1.0000
  Ti  Ti3133    1.0  0.45122  0.46032  0.94427  1.0000
  Ti  Ti3134    1.0  0.19512  0.62698  0.94427  1.0000
  Ti  Ti3135    1.0  0.43902  0.35238  0.94223  1.0000
  Ti  Ti3136    1.0  0.18293  0.51905  0.94223  1.0000
  Ti  Ti3137    1.0  0.42683  0.57778  0.94019  1.0000
  Ti  Ti3138    1.0  0.17073  0.41111  0.94019  1.0000
  Ti  Ti3139    1.0  0.41463  0.46984  0.93814  1.0000
  Ti  Ti3140    1.0  0.15854  0.63651  0.93814  1.0000
  Ti  Ti3141    1.0  0.40244  0.36190  0.93610  1.0000
  Ti  Ti3142    1.0  0.14634  0.52857  0.93610  1.0000
  Ti  Ti3143    1.0  0.39024  0.58730  0.93406  1.0000
  Ti  Ti3144    1.0  0.13415  0.42063  0.93406  1.0000
  Ti  Ti3145    1.0  0.37805  0.47937  0.93201  1.0000
  Ti  Ti3146    1.0  0.12195  0.64603  0.93201  1.0000
  Ti  Ti3147    1.0  0.36585  0.37143  0.92997  1.0000
  Ti  Ti3148    1.0  0.10976  0.53810  0.92997  1.0000
  Ti  Ti3149    1.0  0.35366  0.59683  0.92793  1.0000
  Ti  Ti3150    1.0  0.09756  0.43016  0.92793  1.0000
  Ti  Ti3151    1.0  0.34146  0.48889  0.92589  1.0000
  Ti  Ti3152    1.0  0.08537  0.65556  0.92589  1.0000
  Ti  Ti3153    1.0  0.32927  0.38095  0.92384  1.0000
  Ti  Ti3154    1.0  0.07317  0.54762  0.92384  1.0000
  Ti  Ti3155    1.0  0.31707  0.60635  0.92180  1.0000
  Ti  Ti3156    1.0  0.06098  0.43968  0.92180  1.0000
  Ti  Ti3157    1.0  0.30488  0.49841  0.91976  1.0000
  Ti  Ti3158    1.0  0.04878  0.66508  0.91976  1.0000
  Ti  Ti3159    1.0  0.29268  0.39048  0.91772  1.0000
  Ti  Ti3160    1.0  0.03659  0.55714  0.91772  1.0000
  Ti  Ti3161    1.0  0.28049  0.61587  0.91567  1.0000
  Ti  Ti3162    1.0  0.02439  0.44921  0.91567  1.0000
  Ti  Ti3163    1.0  0.26829  0.50794  0.91363  1.0000
  Ti  Ti3164    1.0  0.01220  0.34127  0.91363  1.0000
  Ti  Ti3165    1.0  0.25610  0.40000  0.91159  1.0000
  Ti  Ti3166    1.0  0.00000  0.56667  0.91159  1.0000
  Ti  Ti3167    1.0  0.24390  0.62540  0.90955  1.0000
  Ti  Ti3168    1.0  0.50000  0.45873  0.90955  1.0000
  Ti  Ti3169    1.0  0.23171  0.51746  0.90750  1.0000
  Ti  Ti3170    1.0  0.48780  0.35079  0.90750  1.0000
  Ti  Ti3171    1.0  0.21951  0.40952  0.90546  1.0000
  Ti  Ti3172    1.0  0.47561  0.57619  0.90546  1.0000
  Ti  Ti3173    1.0  0.20732  0.63492  0.90342  1.0000
  Ti  Ti3174    1.0  0.46341  0.46825  0.90342  1.0000
  Ti  Ti3175    1.0  0.19512  0.52698  0.90138  1.0000
  Ti  Ti3176    1.0  0.45122  0.36032  0.90138  1.0000
  Ti  Ti3177    1.0  0.18293  0.41905  0.89933  1.0000
  Ti  Ti3178    1.0  0.43902  0.58571  0.89933  1.0000
  Ti  Ti3179    1.0  0.17073  0.64444  0.89729  1.0000
  Ti  Ti3180    1.0  0.42683  0.47778  0.89729  1.0000
  Ti  Ti3181    1.0  0.15854  0.53651  0.89525  1.0000
  Ti  Ti3182    1.0  0.41463  0.36984  0.89525  1.0000
  Ti  Ti3183    1.0  0.14634  0.42857  0.89321  1.0000
  Ti  Ti3184    1.0  0.40244  0.59524  0.89321  1.0000
  Ti  Ti3185    1.0  0.13415  0.65397  0.89116  1.0000
  Ti  Ti3186    1.0  0.39024  0.48730  0.89116  1.0000
  Ti  Ti3187    1.0  0.12195  0.54603  0.88912  1.0000
  Ti  Ti3188    1.0  0.37805  0.37937  0.88912  1.0000
  Ti  Ti3189    1.0  0.10976  0.43810  0.88708  1.0000
  Ti  Ti3190    1.0  0.36585  0.60476  0.88708  1.0000
  Ti  Ti3191    1.0  0.09756  0.66349  0.88503  1.0000
  Ti  Ti3192    1.0  0.35366  0.49683  0.88503  1.0000
  Ti  Ti3193    1.0  0.08537  0.55556  0.88299  1.0000
  Ti  Ti3194    1.0  0.34146  0.38889  0.88299  1.0000
  Ti  Ti3195    1.0  0.07317  0.44762  0.88095  1.0000
  Ti  Ti3196    1.0  0.32927  0.61429  0.88095  1.0000
  Ti  Ti3197    1.0  0.06098  0.33968  0.87891  1.0000
  Ti  Ti3198    1.0  0.31707  0.50635  0.87891  1.0000
  Ti  Ti3199    1.0  0.04878  0.56508  0.87686  1.0000
  Ti  Ti3200    1.0  0.30488  0.39841  0.87686  1.0000
  Ti  Ti3201    1.0  0.03659  0.45714  0.87482  1.0000
  Ti  Ti3202    1.0  0.29268  0.62381  0.87482  1.0000
  Ti  Ti3203    1.0  0.02439  0.34921  0.87278  1.0000
  Ti  Ti3204    1.0  0.28049  0.51587  0.87278  1.0000
  Ti  Ti3205    1.0  0.01220  0.57460  0.87074  1.0000
  Ti  Ti3206    1.0  0.26829  0.40794  0.87074  1.0000
  Ti  Ti3207    1.0  0.00000  0.46667  0.86869  1.0000
  Ti  Ti3208    1.0  0.25610  0.63333  0.86869  1.0000
  Ti  Ti3209    1.0  0.50000  0.35873  0.86665  1.0000
  Ti  Ti3210    1.0  0.24390  0.52540  0.86665  1.0000
  Ti  Ti3211    1.0  0.48780  0.58413  0.86461  1.0000
  Ti  Ti3212    1.0  0.23171  0.41746  0.86461  1.0000
  Ti  Ti3213    1.0  0.47561  0.47619  0.86257  1.0000
  Ti  Ti3214    1.0  0.21951  0.64286  0.86257  1.0000
  Ti  Ti3215    1.0  0.46341  0.36825  0.86052  1.0000
  Ti  Ti3216    1.0  0.20732  0.53492  0.86052  1.0000
  Ti  Ti3217    1.0  0.45122  0.59365  0.85848  1.0000
  Ti  Ti3218    1.0  0.19512  0.42698  0.85848  1.0000
  Ti  Ti3219    1.0  0.43902  0.48571  0.85644  1.0000
  Ti  Ti3220    1.0  0.18293  0.65238  0.85644  1.0000
  Ti  Ti3221    1.0  0.42683  0.37778  0.85440  1.0000
  Ti  Ti3222    1.0  0.17073  0.54444  0.85440  1.0000
  Ti  Ti3223    1.0  0.41463  0.60317  0.85235  1.0000
  Ti  Ti3224    1.0  0.15854  0.43651  0.85235  1.0000
  Ti  Ti3225    1.0  0.40244  0.49524  0.85031  1.0000
  Ti  Ti3226    1.0  0.14634  0.66190  0.85031  1.0000
  Ti  Ti3227    1.0  0.39024  0.38730  0.84827  1.0000
  Ti  Ti3228    1.0  0.13415  0.55397  0.84827  1.0000
  Ti  Ti3229    1.0  0.37805  0.61270  0.84622  1.0000
  Ti  Ti3230    1.0  0.12195  0.44603  0.84622  1.0000
  Ti  Ti3231    1.0  0.36585  0.50476  0.84418  1.0000
  Ti  Ti3232    1.0  0.10976  0.33810  0.84418  1.0000
  Ti  Ti3233    1.0  0.35366  0.39683  0.84214  1.0000
  Ti  Ti3234    1.0  0.09756  0.56349  0.84214  1.0000
  Ti  Ti3235    1.0  0.34146  0.62222  0.84010  1.0000
  Ti  Ti3236    1.0  0.08537  0.45556  0.84010  1.0000
  Ti  Ti3237    1.0  0.32927  0.51429  0.83805  1.0000
  Ti  Ti3238    1.0  0.07317  0.34762  0.83805  1.0000
  Ti  Ti3239    1.0  0.31707  0.40635  0.83601  1.0000
  Ti  Ti3240    1.0  0.06098  0.57302  0.83601  1.0000
  Ti  Ti3241    1.0  0.30488  0.63175  0.83397  1.0000
  Ti  Ti3242    1.0  0.04878  0.46508  0.83397  1.0000
  Ti  Ti3243    1.0  0.29268  0.52381  0.83193  1.0000
  Ti  Ti3244    1.0  0.03659  0.35714  0.83193  1.0000
  Ti  Ti3245    1.0  0.28049  0.41587  0.82988  1.0000
  Ti  Ti3246    1.0  0.02439  0.58254  0.82988  1.0000
  Ti  Ti3247    1.0  0.26829  0.64127  0.82784  1.0000
  Ti  Ti3248    1.0  0.01220  0.47460  0.82784  1.0000
  Ti  Ti3249    1.0  0.25610  0.53333  0.82580  1.0000
  Ti  Ti3250    1.0  0.00000  0.36667  0.82580  1.0000
  Ti  Ti3251    1.0  0.24390  0.42540  0.82376  1.0000
  Ti  Ti3252    1.0  0.50000  0.59206  0.82376  1.0000
  Ti  Ti3253    1.0  0.23171  0.65079  0.82171  1.0000
  Ti  Ti3254    1.0  0.48780  0.48413  0.82171  1.0000
  Ti  Ti3255    1.0  0.21951  0.54286  0.81967  1.0000
  Ti  Ti3256    1.0  0.47561  0.37619  0.81967  1.0000
  Ti  Ti3257    1.0  0.20732  0.43492  0.81763  1.0000
  Ti  Ti3258    1.0  0.46341  0.60159  0.81763  1.0000
  Ti  Ti3259    1.0  0.19512  0.66032  0.81559  1.0000
  Ti  Ti3260    1.0  0.45122  0.49365  0.81559  1.0000
  Ti  Ti3261    1.0  0.18293  0.55238  0.81354  1.0000
  Ti  Ti3262    1.0  0.43902  0.38571  0.81354  1.0000
  Ti  Ti3263    1.0  0.17073  0.44444  0.81150  1.0000
  Ti  Ti3264    1.0  0.42683  0.61111  0.81150  1.0000
  Ti  Ti3265    1.0  0.15854  0.33651  0.80946  1.0000
  Ti  Ti3266    1.0  0.41463  0.50317  0.80946  1.0000
  Ti  Ti3267    1.0  0.14634  0.56190  0.80741  1.0000
  Ti  Ti3268    1.0  0.40244  0.39524  0.80741  1.0000
  Ti  Ti3269    1.0  0.13415  0.45397  0.80537  1.0000
  Ti  Ti3270    1.0  0.39024  0.62063  0.80537  1.0000
  Ti  Ti3271    1.0  0.12195  0.34603  0.80333  1.0000
  Ti  Ti3272    1.0  0.37805  0.51270  0.80333  1.0000
  Ti  Ti3273    1.0  0.10976  0.57143  0.80129  1.0000
  Ti  Ti3274    1.0  0.36585  0.40476  0.80129  1.0000
  Ti  Ti3275    1.0  0.09756  0.46349  0.79924  1.0000
  Ti  Ti3276    1.0  0.35366  0.63016  0.79924  1.0000
  Ti  Ti3277    1.0  0.08537  0.35556  0.79720  1.0000
  Ti  Ti3278    1.0  0.34146  0.52222  0.79720  1.0000
  Ti  Ti3279    1.0  0.07317  0.58095  0.79516  1.0000
  Ti  Ti3280    1.0  0.32927  0.41429  0.79516  1.0000
  Ti  Ti3281    1.0  0.06098  0.47302  0.79312  1.0000
  Ti  Ti3282    1.0  0.31707  0.63968  0.79312  1.0000
  Ti  Ti3283    1.0  0.04878  0.36508  0.79107  1.0000
  Ti  Ti3284    1.0  0.30488  0.53175  0.79107  1.0000
  Ti  Ti3285    1.0  0.03659  0.59048  0.78903  1.0000
  Ti  Ti3286    1.0  0.29268  0.42381  0.78903  1.0000
  Ti  Ti3287    1.0  0.02439  0.48254  0.78699  1.0000
  Ti  Ti3288    1.0  0.28049  0.64921  0.78699  1.0000
  Ti  Ti3289    1.0  0.01220  0.37460  0.78495  1.0000
  Ti  Ti3290    1.0  0.26829  0.54127  0.78495  1.0000
  Ti  Ti3291    1.0  0.00000  0.60000  0.78290  1.0000
  Ti  Ti3292    1.0  0.25610  0.43333  0.78290  1.0000
  Ti  Ti3293    1.0  0.50000  0.49206  0.78086  1.0000
  Ti  Ti3294    1.0  0.24390  0.65873  0.78086  1.0000
  Ti  Ti3295    1.0  0.48780  0.38413  0.77882  1.0000
  Ti  Ti3296    1.0  0.23171  0.55079  0.77882  1.0000
  Ti  Ti3297    1.0  0.47561  0.60952  0.77678  1.0000
  Ti  Ti3298    1.0  0.21951  0.44286  0.77678  1.0000
  Ti  Ti3299    1.0  0.46341  0.50159  0.77473  1.0000
  Ti  Ti3300    1.0  0.20732  0.33492  0.77473  1.0000
  Ti  Ti3301    1.0  0.45122  0.39365  0.77269  1.0000
  Ti  Ti3302    1.0  0.19512  0.56032  0.77269  1.0000
  Ti  Ti3303    1.0  0.43902  0.61905  0.77065  1.0000
  Ti  Ti3304    1.0  0.18293  0.45238  0.77065  1.0000
  Ti  Ti3305    1.0  0.42683  0.51111  0.76861  1.0000
  Ti  Ti3306    1.0  0.17073  0.34444  0.76861  1.0000
  Ti  Ti3307    1.0  0.41463  0.40317  0.76656  1.0000
  Ti  Ti3308    1.0  0.15854  0.56984  0.76656  1.0000
  Ti  Ti3309    1.0  0.40244  0.62857  0.76452  1.0000
  Ti  Ti3310    1.0  0.14634  0.46190  0.76452  1.0000
  Ti  Ti3311    1.0  0.39024  0.52063  0.76248  1.0000
  Ti  Ti3312    1.0  0.13415  0.35397  0.76248  1.0000
  Ti  Ti3313    1.0  0.37805  0.41270  0.76043  1.0000
  Ti  Ti3314    1.0  0.12195  0.57937  0.76043  1.0000
  Ti  Ti3315    1.0  0.36585  0.63810  0.75839  1.0000
  Ti  Ti3316    1.0  0.10976  0.47143  0.75839  1.0000
  Ti  Ti3317    1.0  0.35366  0.53016  0.75635  1.0000
  Ti  Ti3318    1.0  0.09756  0.36349  0.75635  1.0000
  Ti  Ti3319    1.0  0.34146  0.42222  0.75431  1.0000
  Ti  Ti3320    1.0  0.08537  0.58889  0.75431  1.0000
  Ti  Ti3321    1.0  0.32927  0.64762  0.75226  1.0000
  Ti  Ti3322    1.0  0.07317  0.48095  0.75226  1.0000
  Ti  Ti3323    1.0  0.31707  0.53968  0.75022  1.0000
  Ti  Ti3324    1.0  0.06098  0.37302  0.75022  1.0000
  Ti  Ti3325    1.0  0.30488  0.43175  0.74818  1.0000
  Ti  Ti3326    1.0  0.04878  0.59841  0.74818  1.0000
  Ti  Ti3327    1.0  0.29268  0.65714  0.74614  1.0000
  Ti  Ti3328    1.0  0.03659  0.49048  0.74614  1.0000
  Ti  Ti3329    1.0  0.28049  0.54921  0.74409  1.0000
  Ti  Ti3330    1.0  0.02439  0.38254  0.74409  1.0000
  Ti  Ti3331    1.0  0.26829  0.44127  0.74205  1.0000
  Ti  Ti3332    1.0  0.01220  0.60794  0.74205  1.0000
  Ti  Ti3333    1.0  0.25610  0.66667  0.74001  1.0000
  Ti  Ti3334    1.0  0.00000  0.50000  0.74001  1.0000
  Ti  Ti3335    1.0  0.24390  0.55873  0.73797  1.0000
  Ti  Ti3336    1.0  0.50000  0.39206  0.73797  1.0000
  Ti  Ti3337    1.0  0.23171  0.45079  0.73592  1.0000
  Ti  Ti3338    1.0  0.48780  0.61746  0.73592  1.0000
  Ti  Ti3339    1.0  0.21951  0.34286  0.73388  1.0000
  Ti  Ti3340    1.0  0.47561  0.50952  0.73388  1.0000
  Ti  Ti3341    1.0  0.20732  0.56825  0.73184  1.0000
  Ti  Ti3342    1.0  0.46341  0.40159  0.73184  1.0000
  Ti  Ti3343    1.0  0.19512  0.46032  0.72980  1.0000
  Ti  Ti3344    1.0  0.45122  0.62698  0.72980  1.0000
  Ti  Ti3345    1.0  0.18293  0.35238  0.72775  1.0000
  Ti  Ti3346    1.0  0.43902  0.51905  0.72775  1.0000
  Ti  Ti3347    1.0  0.17073  0.57778  0.72571  1.0000
  Ti  Ti3348    1.0  0.42683  0.41111  0.72571  1.0000
  Ti  Ti3349    1.0  0.15854  0.46984  0.72367  1.0000
  Ti  Ti3350    1.0  0.41463  0.63651  0.72367  1.0000
  Ti  Ti3351    1.0  0.14634  0.36190  0.72162  1.0000
  Ti  Ti3352    1.0  0.40244  0.52857  0.72162  1.0000
  Ti  Ti3353    1.0  0.13415  0.58730  0.71958  1.0000
  Ti  Ti3354    1.0  0.39024  0.42063  0.71958  1.0000
  Ti  Ti3355    1.0  0.12195  0.47937  0.71754  1.0000
  Ti  Ti3356    1.0  0.37805  0.64603  0.71754  1.0000
  Ti  Ti3357    1.0  0.10976  0.37143  0.71550  1.0000
  Ti  Ti3358    1.0  0.36585  0.53810  0.71550  1.0000
  Ti  Ti3359    1.0  0.09756  0.59683  0.71345  1.0000
  Ti  Ti3360    1.0  0.35366  0.43016  0.71345  1.0000
  Ti  Ti3361    1.0  0.08537  0.48889  0.71141  1.0000
  Ti  Ti3362    1.0  0.34146  0.65556  0.71141  1.0000
  Ti  Ti3363    1.0  0.07317  0.38095  0.70937  1.0000
  Ti  Ti3364    1.0  0.32927  0.54762  0.70937  1.0000
  Ti  Ti3365    1.0  0.06098  0.60635  0.70733  1.0000
  Ti  Ti3366    1.0  0.31707  0.43968  0.70733  1.0000
  Ti  Ti3367    1.0  0.04878  0.49841  0.70528  1.0000
  Ti  Ti3368    1.0  0.30488  0.66508  0.70528  1.0000
  Ti  Ti3369    1.0  0.03659  0.39048  0.70324  1.0000
  Ti  Ti3370    1.0  0.29268  0.55714  0.70324  1.0000
  Ti  Ti3371    1.0  0.02439  0.61587  0.70120  1.0000
  Ti  Ti3372    1.0  0.28049  0.44921  0.70120  1.0000
  Ti  Ti3373    1.0  0.01220  0.50794  0.69916  1.0000
  Ti  Ti3374    1.0  0.26829  0.34127  0.69916  1.0000
  Ti  Ti3375    1.0  0.00000  0.40000  0.69711  1.0000
  Ti  Ti3376    1.0  0.25610  0.56667  0.69711  1.0000
  Ti  Ti3377    1.0  0.50000  0.62540  0.69507  1.0000
  Ti  Ti3378    1.0  0.24390  0.45873  0.69507  1.0000
  Ti  Ti3379    1.0  0.48780  0.51746  0.69303  1.0000
  Ti  Ti3380    1.0  0.23171  0.35079  0.69303  1.0000
  Ti  Ti3381    1.0  0.47561  0.40952  0.69099  1.0000
  Ti  Ti3382    1.0  0.21951  0.57619  0.69099  1.0000
  Ti  Ti3383    1.0  0.46341  0.63492  0.68894  1.0000
  Ti  Ti3384    1.0  0.20732  0.46825  0.68894  1.0000
  Ti  Ti3385    1.0  0.45122  0.52698  0.68690  1.0000
  Ti  Ti3386    1.0  0.19512  0.36032  0.68690  1.0000
  Ti  Ti3387    1.0  0.43902  0.41905  0.68486  1.0000
  Ti  Ti3388    1.0  0.18293  0.58571  0.68486  1.0000
  Ti  Ti3389    1.0  0.42683  0.64444  0.68281  1.0000
  Ti  Ti3390    1.0  0.17073  0.47778  0.68281  1.0000
  Ti  Ti3391    1.0  0.41463  0.53651  0.68077  1.0000
  Ti  Ti3392    1.0  0.15854  0.36984  0.68077  1.0000
  Ti  Ti3393    1.0  0.40244  0.42857  0.67873  1.0000
  Ti  Ti3394    1.0  0.14634  0.59524  0.67873  1.0000
  Ti  Ti3395    1.0  0.39024  0.65397  0.67669  1.0000
  Ti  Ti3396    1.0  0.13415  0.48730  0.67669  1.0000
  Ti  Ti3397    1.0  0.37805  0.54603  0.67464  1.0000
  Ti  Ti3398    1.0  0.12195  0.37937  0.67464  1.0000
  Ti  Ti3399    1.0  0.36585  0.43810  0.67260  1.0000
  Ti  Ti3400    1.0  0.10976  0.60476  0.67260  1.0000
  Ti  Ti3401    1.0  0.35366  0.66349  0.67056  1.0000
  Ti  Ti3402    1.0  0.09756  0.49683  0.67056  1.0000
  Ti  Ti3403    1.0  0.34146  0.55556  0.66852  1.0000
  Ti  Ti3404    1.0  0.08537  0.38889  0.66852  1.0000
  Ti  Ti3405    1.0  0.32927  0.44762  0.66647  1.0000
  Ti  Ti3406    1.0  0.07317  0.61429  0.66647  1.0000
  Ti  Ti3407    1.0  0.31707  0.33968  0.66443  1.0000
  Ti  Ti3408    1.0  0.06098  0.50635  0.66443  1.0000
  Ti  Ti3409    1.0  0.30488  0.56508  0.66239  1.0000
  Ti  Ti3410    1.0  0.04878  0.39841  0.66239  1.0000
  Ti  Ti3411    1.0  0.29268  0.45714  0.66035  1.0000
  Ti  Ti3412    1.0  0.03659  0.62381  0.66035  1.0000
  Ti  Ti3413    1.0  0.28049  0.34921  0.65830  1.0000
  Ti  Ti3414    1.0  0.02439  0.51587  0.65830  1.0000
  Ti  Ti3415    1.0  0.26829  0.57460  0.65626  1.0000
  Ti  Ti3416    1.0  0.01220  0.40794  0.65626  1.0000
  Ti  Ti3417    1.0  0.25610  0.46667  0.65422  1.0000
  Ti  Ti3418    1.0  0.00000  0.63333  0.65422  1.0000
  Ti  Ti3419    1.0  0.24390  0.35873  0.65218  1.0000
  Ti  Ti3420    1.0  0.50000  0.52540  0.65218  1.0000
  Ti  Ti3421    1.0  0.23171  0.58413  0.65013  1.0000
  Ti  Ti3422    1.0  0.48780  0.41746  0.65013  1.0000
  Ti  Ti3423    1.0  0.21951  0.47619  0.64809  1.0000
  Ti  Ti3424    1.0  0.47561  0.64286  0.64809  1.0000
  Ti  Ti3425    1.0  0.20732  0.36825  0.64605  1.0000
  Ti  Ti3426    1.0  0.46341  0.53492  0.64605  1.0000
  Ti  Ti3427    1.0  0.19512  0.59365  0.64400  1.0000
  Ti  Ti3428    1.0  0.45122  0.42698  0.64400  1.0000
  Ti  Ti3429    1.0  0.18293  0.48571  0.64196  1.0000
  Ti  Ti3430    1.0  0.43902  0.65238  0.64196  1.0000
  Ti  Ti3431    1.0  0.17073  0.37778  0.63992  1.0000
  Ti  Ti3432    1.0  0.42683  0.54444  0.63992  1.0000
  Ti  Ti3433    1.0  0.15854  0.60317  0.63788  1.0000
  Ti  Ti3434    1.0  0.41463  0.43651  0.63788  1.0000
  Ti  Ti3435    1.0  0.14634  0.49524  0.63583  1.0000
  Ti  Ti3436    1.0  0.40244  0.66190  0.63583  1.0000
  Ti  Ti3437    1.0  0.13415  0.38730  0.63379  1.0000
  Ti  Ti3438    1.0  0.39024  0.55397  0.63379  1.0000
  Ti  Ti3439    1.0  0.12195  0.61270  0.63175  1.0000
  Ti  Ti3440    1.0  0.37805  0.44603  0.63175  1.0000
  Ti  Ti3441    1.0  0.10976  0.50476  0.62971  1.0000
  Ti  Ti3442    1.0  0.36585  0.33810  0.62971  1.0000
  Ti  Ti3443    1.0  0.09756  0.39683  0.62766  1.0000
  Ti  Ti3444    1.0  0.35366  0.56349  0.62766  1.0000
  Ti  Ti3445    1.0  0.08537  0.62222  0.62562  1.0000
  Ti  Ti3446    1.0  0.34146  0.45556  0.62562  1.0000
  Ti  Ti3447    1.0  0.07317  0.51429  0.62358  1.0000
  Ti  Ti3448    1.0  0.32927  0.34762  0.62358  1.0000
  Ti  Ti3449    1.0  0.06098  0.40635  0.62154  1.0000
  Ti  Ti3450    1.0  0.31707  0.57302  0.62154  1.0000
  Ti  Ti3451    1.0  0.04878  0.63175  0.61949  1.0000
  Ti  Ti3452    1.0  0.30488  0.46508  0.61949  1.0000
  Ti  Ti3453    1.0  0.03659  0.52381  0.61745  1.0000
  Ti  Ti3454    1.0  0.29268  0.35714  0.61745  1.0000
  Ti  Ti3455    1.0  0.02439  0.41587  0.61541  1.0000
  Ti  Ti3456    1.0  0.28049  0.58254  0.61541  1.0000
  Ti  Ti3457    1.0  0.01220  0.64127  0.61337  1.0000
  Ti  Ti3458    1.0  0.26829  0.47460  0.61337  1.0000
  Ti  Ti3459    1.0  0.00000  0.53333  0.61132  1.0000
  Ti  Ti3460    1.0  0.25610  0.36667  0.61132  1.0000
  Ti  Ti3461    1.0  0.50000  0.42540  0.60928  1.0000
  Ti  Ti3462    1.0  0.24390  0.59206  0.60928  1.0000
  Ti  Ti3463    1.0  0.48780  0.65079  0.60724  1.0000
  Ti  Ti3464    1.0  0.23171  0.48413  0.60724  1.0000
  Ti  Ti3465    1.0  0.47561  0.54286  0.60520  1.0000
  Ti  Ti3466    1.0  0.21951  0.37619  0.60520  1.0000
  Ti  Ti3467    1.0  0.46341  0.43492  0.60315  1.0000
  Ti  Ti3468    1.0  0.20732  0.60159  0.60315  1.0000
  Ti  Ti3469    1.0  0.45122  0.66032  0.60111  1.0000
  Ti  Ti3470    1.0  0.19512  0.49365  0.60111  1.0000
  Ti  Ti3471    1.0  0.43902  0.55238  0.59907  1.0000
  Ti  Ti3472    1.0  0.18293  0.38571  0.59907  1.0000
  Ti  Ti3473    1.0  0.42683  0.44444  0.59702  1.0000
  Ti  Ti3474    1.0  0.17073  0.61111  0.59702  1.0000
  Ti  Ti3475    1.0  0.41463  0.33651  0.59498  1.0000
  Ti  Ti3476    1.0  0.15854  0.50317  0.59498  1.0000
  Ti  Ti3477    1.0  0.40244  0.56190  0.59294  1.0000
  Ti  Ti3478    1.0  0.14634  0.39524  0.59294  1.0000
  Ti  Ti3479    1.0  0.39024  0.45397  0.59090  1.0000
  Ti  Ti3480    1.0  0.13415  0.62063  0.59090  1.0000
  Ti  Ti3481    1.0  0.37805  0.34603  0.58885  1.0000
  Ti  Ti3482    1.0  0.12195  0.51270  0.58885  1.0000
  Ti  Ti3483    1.0  0.36585  0.57143  0.58681  1.0000
  Ti  Ti3484    1.0  0.10976  0.40476  0.58681  1.0000
  Ti  Ti3485    1.0  0.35366  0.46349  0.58477  1.0000
  Ti  Ti3486    1.0  0.09756  0.63016  0.58477  1.0000
  Ti  Ti3487    1.0  0.34146  0.35556  0.58273  1.0000
  Ti  Ti3488    1.0  0.08537  0.52222  0.58273  1.0000
  Ti  Ti3489    1.0  0.32927  0.58095  0.58068  1.0000
  Ti  Ti3490    1.0  0.07317  0.41429  0.58068  1.0000
  Ti  Ti3491    1.0  0.31707  0.47302  0.57864  1.0000
  Ti  Ti3492    1.0  0.06098  0.63968  0.57864  1.0000
  Ti  Ti3493    1.0  0.30488  0.36508  0.57660  1.0000
  Ti  Ti3494    1.0  0.04878  0.53175  0.57660  1.0000
  Ti  Ti3495    1.0  0.29268  0.59048  0.57456  1.0000
  Ti  Ti3496    1.0  0.03659  0.42381  0.57456  1.0000
  Ti  Ti3497    1.0  0.28049  0.48254  0.57251  1.0000
  Ti  Ti3498    1.0  0.02439  0.64921  0.57251  1.0000
  Ti  Ti3499    1.0  0.26829  0.37460  0.57047  1.0000
  Ti  Ti3500    1.0  0.01220  0.54127  0.57047  1.0000
  Ti  Ti3501    1.0  0.25610  0.60000  0.56843  1.0000
  Ti  Ti3502    1.0  0.00000  0.43333  0.56843  1.0000
  Ti  Ti3503    1.0  0.24390  0.49206  0.56639  1.0000
  Ti  Ti3504    1.0  0.50000  0.65873  0.56639  1.0000
  Ti  Ti3505    1.0  0.23171  0.38413  0.56434  1.0000
  Ti  Ti3506    1.0  0.48780  0.55079  0.56434  1.0000
  Ti  Ti3507    1.0  0.21951  0.60952  0.56230  1.0000
  Ti  Ti3508    1.0  0.47561  0.44286  0.56230  1.0000
  Ti  Ti3509    1.0  0.20732  0.50159  0.56026  1.0000
  Ti  Ti3510    1.0  0.46341  0.33492  0.56026  1.0000
  Ti  Ti3511    1.0  0.19512  0.39365  0.55821  1.0000
  Ti  Ti3512    1.0  0.45122  0.56032  0.55821  1.0000
  Ti  Ti3513    1.0  0.18293  0.61905  0.55617  1.0000
  Ti  Ti3514    1.0  0.43902  0.45238  0.55617  1.0000
  Ti  Ti3515    1.0  0.17073  0.51111  0.55413  1.0000
  Ti  Ti3516    1.0  0.42683  0.34444  0.55413  1.0000
  Ti  Ti3517    1.0  0.15854  0.40317  0.55209  1.0000
  Ti  Ti3518    1.0  0.41463  0.56984  0.55209  1.0000
  Ti  Ti3519    1.0  0.14634  0.62857  0.55004  1.0000
  Ti  Ti3520    1.0  0.40244  0.46190  0.55004  1.0000
  Ti  Ti3521    1.0  0.13415  0.52063  0.54800  1.0000
  Ti  Ti3522    1.0  0.39024  0.35397  0.54800  1.0000
  Ti  Ti3523    1.0  0.12195  0.41270  0.54596  1.0000
  Ti  Ti3524    1.0  0.37805  0.57937  0.54596  1.0000
  Ti  Ti3525    1.0  0.10976  0.63810  0.54392  1.0000
  Ti  Ti3526    1.0  0.36585  0.47143  0.54392  1.0000
  Ti  Ti3527    1.0  0.09756  0.53016  0.54187  1.0000
  Ti  Ti3528    1.0  0.35366  0.36349  0.54187  1.0000
  Ti  Ti3529    1.0  0.08537  0.42222  0.53983  1.0000
  Ti  Ti3530    1.0  0.34146  0.58889  0.53983  1.0000
  Ti  Ti3531    1.0  0.07317  0.64762  0.53779  1.0000
  Ti  Ti3532    1.0  0.32927  0.48095  0.53779  1.0000
  Ti  Ti3533    1.0  0.06098  0.53968  0.53575  1.0000
  Ti  Ti3534    1.0  0.31707  0.37302  0.53575  1.0000
  Ti  Ti3535    1.0  0.04878  0.43175  0.53370  1.0000
  Ti  Ti3536    1.0  0.30488  0.59841  0.53370  1.0000
  Ti  Ti3537    1.0  0.03659  0.65714  0.53166  1.0000
  Ti  Ti3538    1.0  0.29268  0.49048  0.53166  1.0000
  Ti  Ti3539    1.0  0.02439  0.54921  0.52962  1.0000
  Ti  Ti3540    1.0  0.28049  0.38254  0.52962  1.0000
  Ti  Ti3541    1.0  0.01220  0.44127  0.52758  1.0000
  Ti  Ti3542    1.0  0.26829  0.60794  0.52758  1.0000
  Ti  Ti3543    1.0  0.00000  0.66667  0.52553  1.0000
  Ti  Ti3544    1.0  0.25610  0.50000  0.52553  1.0000
  Ti  Ti3545    1.0  0.50000  0.55873  0.52349  1.0000
  Ti  Ti3546    1.0  0.24390  0.39206  0.52349  1.0000
  Ti  Ti3547    1.0  0.48780  0.45079  0.52145  1.0000
  Ti  Ti3548    1.0  0.23171  0.61746  0.52145  1.0000
  Ti  Ti3549    1.0  0.47561  0.34286  0.51940  1.0000
  Ti  Ti3550    1.0  0.21951  0.50952  0.51940  1.0000
  Ti  Ti3551    1.0  0.46341  0.56825  0.51736  1.0000
  Ti  Ti3552    1.0  0.20732  0.40159  0.51736  1.0000
  Ti  Ti3553    1.0  0.45122  0.46032  0.51532  1.0000
  Ti  Ti3554    1.0  0.19512  0.62698  0.51532  1.0000
  Ti  Ti3555    1.0  0.43902  0.35238  0.51328  1.0000
  Ti  Ti3556    1.0  0.18293  0.51905  0.51328  1.0000
  Ti  Ti3557    1.0  0.42683  0.57778  0.51123  1.0000
  Ti  Ti3558    1.0  0.17073  0.41111  0.51123  1.0000
  Ti  Ti3559    1.0  0.41463  0.46984  0.50919  1.0000
  Ti  Ti3560    1.0  0.15854  0.63651  0.50919  1.0000
  Ti  Ti3561    1.0  0.40244  0.36190  0.50715  1.0000
  Ti  Ti3562    1.0  0.14634  0.52857  0.50715  1.0000
  Ti  Ti3563    1.0  0.39024  0.58730  0.50511  1.0000
  Ti  Ti3564    1.0  0.13415  0.42063  0.50511  1.0000
  Ti  Ti3565    1.0  0.37805  0.47937  0.50306  1.0000
  Ti  Ti3566    1.0  0.12195  0.64603  0.50306  1.0000
  Ti  Ti3567    1.0  0.36585  0.37143  0.50102  1.0000
  Ti  Ti3568    1.0  0.10976  0.53810  0.50102  1.0000
  Ti  Ti3569    1.0  0.00000  0.66667  0.95448  1.0000
  Ti  Ti3570    1.0  0.25610  0.83333  0.95448  1.0000
  Ti  Ti3571    1.0  0.50000  0.89206  0.95244  1.0000
  Ti  Ti3572    1.0  0.24390  0.72540  0.95244  1.0000
  Ti  Ti3573    1.0  0.48780  0.78413  0.95040  1.0000
  Ti  Ti3574    1.0  0.23171  0.95079  0.95040  1.0000
  Ti  Ti3575    1.0  0.47561  0.67619  0.94836  1.0000
  Ti  Ti3576    1.0  0.21951  0.84286  0.94836  1.0000
  Ti  Ti3577    1.0  0.46341  0.90159  0.94631  1.0000
  Ti  Ti3578    1.0  0.20732  0.73492  0.94631  1.0000
  Ti  Ti3579    1.0  0.45122  0.79365  0.94427  1.0000
  Ti  Ti3580    1.0  0.19512  0.96032  0.94427  1.0000
  Ti  Ti3581    1.0  0.43902  0.68571  0.94223  1.0000
  Ti  Ti3582    1.0  0.18293  0.85238  0.94223  1.0000
  Ti  Ti3583    1.0  0.42683  0.91111  0.94019  1.0000
  Ti  Ti3584    1.0  0.17073  0.74444  0.94019  1.0000
  Ti  Ti3585    1.0  0.41463  0.80317  0.93814  1.0000
  Ti  Ti3586    1.0  0.15854  0.96984  0.93814  1.0000
  Ti  Ti3587    1.0  0.40244  0.69524  0.93610  1.0000
  Ti  Ti3588    1.0  0.14634  0.86190  0.93610  1.0000
  Ti  Ti3589    1.0  0.39024  0.92063  0.93406  1.0000
  Ti  Ti3590    1.0  0.13415  0.75397  0.93406  1.0000
  Ti  Ti3591    1.0  0.37805  0.81270  0.93201  1.0000
  Ti  Ti3592    1.0  0.12195  0.97937  0.93201  1.0000
  Ti  Ti3593    1.0  0.36585  0.70476  0.92997  1.0000
  Ti  Ti3594    1.0  0.10976  0.87143  0.92997  1.0000
  Ti  Ti3595    1.0  0.35366  0.93016  0.92793  1.0000
  Ti  Ti3596    1.0  0.09756  0.76349  0.92793  1.0000
  Ti  Ti3597    1.0  0.34146  0.82222  0.92589  1.0000
  Ti  Ti3598    1.0  0.08537  0.98889  0.92589  1.0000
  Ti  Ti3599    1.0  0.32927  0.71429  0.92384  1.0000
  Ti  Ti3600    1.0  0.07317  0.88095  0.92384  1.0000
  Ti  Ti3601    1.0  0.31707  0.93968  0.92180  1.0000
  Ti  Ti3602    1.0  0.06098  0.77302  0.92180  1.0000
  Ti  Ti3603    1.0  0.30488  0.83175  0.91976  1.0000
  Ti  Ti3604    1.0  0.04878  0.99841  0.91976  1.0000
  Ti  Ti3605    1.0  0.29268  0.72381  0.91772  1.0000
  Ti  Ti3606    1.0  0.03659  0.89048  0.91772  1.0000
  Ti  Ti3607    1.0  0.28049  0.94921  0.91567  1.0000
  Ti  Ti3608    1.0  0.02439  0.78254  0.91567  1.0000
  Ti  Ti3609    1.0  0.26829  0.84127  0.91363  1.0000
  Ti  Ti3610    1.0  0.01220  0.67460  0.91363  1.0000
  Ti  Ti3611    1.0  0.25610  0.73333  0.91159  1.0000
  Ti  Ti3612    1.0  0.00000  0.90000  0.91159  1.0000
  Ti  Ti3613    1.0  0.24390  0.95873  0.90955  1.0000
  Ti  Ti3614    1.0  0.50000  0.79206  0.90955  1.0000
  Ti  Ti3615    1.0  0.23171  0.85079  0.90750  1.0000
  Ti  Ti3616    1.0  0.48780  0.68413  0.90750  1.0000
  Ti  Ti3617    1.0  0.21951  0.74286  0.90546  1.0000
  Ti  Ti3618    1.0  0.47561  0.90952  0.90546  1.0000
  Ti  Ti3619    1.0  0.20732  0.96825  0.90342  1.0000
  Ti  Ti3620    1.0  0.46341  0.80159  0.90342  1.0000
  Ti  Ti3621    1.0  0.19512  0.86032  0.90138  1.0000
  Ti  Ti3622    1.0  0.45122  0.69365  0.90138  1.0000
  Ti  Ti3623    1.0  0.18293  0.75238  0.89933  1.0000
  Ti  Ti3624    1.0  0.43902  0.91905  0.89933  1.0000
  Ti  Ti3625    1.0  0.17073  0.97778  0.89729  1.0000
  Ti  Ti3626    1.0  0.42683  0.81111  0.89729  1.0000
  Ti  Ti3627    1.0  0.15854  0.86984  0.89525  1.0000
  Ti  Ti3628    1.0  0.41463  0.70317  0.89525  1.0000
  Ti  Ti3629    1.0  0.14634  0.76190  0.89321  1.0000
  Ti  Ti3630    1.0  0.40244  0.92857  0.89321  1.0000
  Ti  Ti3631    1.0  0.13415  0.98730  0.89116  1.0000
  Ti  Ti3632    1.0  0.39024  0.82063  0.89116  1.0000
  Ti  Ti3633    1.0  0.12195  0.87937  0.88912  1.0000
  Ti  Ti3634    1.0  0.37805  0.71270  0.88912  1.0000
  Ti  Ti3635    1.0  0.10976  0.77143  0.88708  1.0000
  Ti  Ti3636    1.0  0.36585  0.93810  0.88708  1.0000
  Ti  Ti3637    1.0  0.09756  0.99683  0.88503  1.0000
  Ti  Ti3638    1.0  0.35366  0.83016  0.88503  1.0000
  Ti  Ti3639    1.0  0.08537  0.88889  0.88299  1.0000
  Ti  Ti3640    1.0  0.34146  0.72222  0.88299  1.0000
  Ti  Ti3641    1.0  0.07317  0.78095  0.88095  1.0000
  Ti  Ti3642    1.0  0.32927  0.94762  0.88095  1.0000
  Ti  Ti3643    1.0  0.06098  0.67302  0.87891  1.0000
  Ti  Ti3644    1.0  0.31707  0.83968  0.87891  1.0000
  Ti  Ti3645    1.0  0.04878  0.89841  0.87686  1.0000
  Ti  Ti3646    1.0  0.30488  0.73175  0.87686  1.0000
  Ti  Ti3647    1.0  0.03659  0.79048  0.87482  1.0000
  Ti  Ti3648    1.0  0.29268  0.95714  0.87482  1.0000
  Ti  Ti3649    1.0  0.02439  0.68254  0.87278  1.0000
  Ti  Ti3650    1.0  0.28049  0.84921  0.87278  1.0000
  Ti  Ti3651    1.0  0.01220  0.90794  0.87074  1.0000
  Ti  Ti3652    1.0  0.26829  0.74127  0.87074  1.0000
  Ti  Ti3653    1.0  0.00000  0.80000  0.86869  1.0000
  Ti  Ti3654    1.0  0.25610  0.96667  0.86869  1.0000
  Ti  Ti3655    1.0  0.50000  0.69206  0.86665  1.0000
  Ti  Ti3656    1.0  0.24390  0.85873  0.86665  1.0000
  Ti  Ti3657    1.0  0.48780  0.91746  0.86461  1.0000
  Ti  Ti3658    1.0  0.23171  0.75079  0.86461  1.0000
  Ti  Ti3659    1.0  0.47561  0.80952  0.86257  1.0000
  Ti  Ti3660    1.0  0.21951  0.97619  0.86257  1.0000
  Ti  Ti3661    1.0  0.46341  0.70159  0.86052  1.0000
  Ti  Ti3662    1.0  0.20732  0.86825  0.86052  1.0000
  Ti  Ti3663    1.0  0.45122  0.92698  0.85848  1.0000
  Ti  Ti3664    1.0  0.19512  0.76032  0.85848  1.0000
  Ti  Ti3665    1.0  0.43902  0.81905  0.85644  1.0000
  Ti  Ti3666    1.0  0.18293  0.98571  0.85644  1.0000
  Ti  Ti3667    1.0  0.42683  0.71111  0.85440  1.0000
  Ti  Ti3668    1.0  0.17073  0.87778  0.85440  1.0000
  Ti  Ti3669    1.0  0.41463  0.93651  0.85235  1.0000
  Ti  Ti3670    1.0  0.15854  0.76984  0.85235  1.0000
  Ti  Ti3671    1.0  0.40244  0.82857  0.85031  1.0000
  Ti  Ti3672    1.0  0.14634  0.99524  0.85031  1.0000
  Ti  Ti3673    1.0  0.39024  0.72063  0.84827  1.0000
  Ti  Ti3674    1.0  0.13415  0.88730  0.84827  1.0000
  Ti  Ti3675    1.0  0.37805  0.94603  0.84622  1.0000
  Ti  Ti3676    1.0  0.12195  0.77937  0.84622  1.0000
  Ti  Ti3677    1.0  0.36585  0.83810  0.84418  1.0000
  Ti  Ti3678    1.0  0.10976  0.67143  0.84418  1.0000
  Ti  Ti3679    1.0  0.35366  0.73016  0.84214  1.0000
  Ti  Ti3680    1.0  0.09756  0.89683  0.84214  1.0000
  Ti  Ti3681    1.0  0.34146  0.95556  0.84010  1.0000
  Ti  Ti3682    1.0  0.08537  0.78889  0.84010  1.0000
  Ti  Ti3683    1.0  0.32927  0.84762  0.83805  1.0000
  Ti  Ti3684    1.0  0.07317  0.68095  0.83805  1.0000
  Ti  Ti3685    1.0  0.31707  0.73968  0.83601  1.0000
  Ti  Ti3686    1.0  0.06098  0.90635  0.83601  1.0000
  Ti  Ti3687    1.0  0.30488  0.96508  0.83397  1.0000
  Ti  Ti3688    1.0  0.04878  0.79841  0.83397  1.0000
  Ti  Ti3689    1.0  0.29268  0.85714  0.83193  1.0000
  Ti  Ti3690    1.0  0.03659  0.69048  0.83193  1.0000
  Ti  Ti3691    1.0  0.28049  0.74921  0.82988  1.0000
  Ti  Ti3692    1.0  0.02439  0.91587  0.82988  1.0000
  Ti  Ti3693    1.0  0.26829  0.97460  0.82784  1.0000
  Ti  Ti3694    1.0  0.01220  0.80794  0.82784  1.0000
  Ti  Ti3695    1.0  0.25610  0.86667  0.82580  1.0000
  Ti  Ti3696    1.0  0.00000  0.70000  0.82580  1.0000
  Ti  Ti3697    1.0  0.24390  0.75873  0.82376  1.0000
  Ti  Ti3698    1.0  0.50000  0.92540  0.82376  1.0000
  Ti  Ti3699    1.0  0.23171  0.98413  0.82171  1.0000
  Ti  Ti3700    1.0  0.48780  0.81746  0.82171  1.0000
  Ti  Ti3701    1.0  0.21951  0.87619  0.81967  1.0000
  Ti  Ti3702    1.0  0.47561  0.70952  0.81967  1.0000
  Ti  Ti3703    1.0  0.20732  0.76825  0.81763  1.0000
  Ti  Ti3704    1.0  0.46341  0.93492  0.81763  1.0000
  Ti  Ti3705    1.0  0.19512  0.99365  0.81559  1.0000
  Ti  Ti3706    1.0  0.45122  0.82698  0.81559  1.0000
  Ti  Ti3707    1.0  0.18293  0.88571  0.81354  1.0000
  Ti  Ti3708    1.0  0.43902  0.71905  0.81354  1.0000
  Ti  Ti3709    1.0  0.17073  0.77778  0.81150  1.0000
  Ti  Ti3710    1.0  0.42683  0.94444  0.81150  1.0000
  Ti  Ti3711    1.0  0.15854  0.66984  0.80946  1.0000
  Ti  Ti3712    1.0  0.41463  0.83651  0.80946  1.0000
  Ti  Ti3713    1.0  0.14634  0.89524  0.80741  1.0000
  Ti  Ti3714    1.0  0.40244  0.72857  0.80741  1.0000
  Ti  Ti3715    1.0  0.13415  0.78730  0.80537  1.0000
  Ti  Ti3716    1.0  0.39024  0.95397  0.80537  1.0000
  Ti  Ti3717    1.0  0.12195  0.67937  0.80333  1.0000
  Ti  Ti3718    1.0  0.37805  0.84603  0.80333  1.0000
  Ti  Ti3719    1.0  0.10976  0.90476  0.80129  1.0000
  Ti  Ti3720    1.0  0.36585  0.73810  0.80129  1.0000
  Ti  Ti3721    1.0  0.09756  0.79683  0.79924  1.0000
  Ti  Ti3722    1.0  0.35366  0.96349  0.79924  1.0000
  Ti  Ti3723    1.0  0.08537  0.68889  0.79720  1.0000
  Ti  Ti3724    1.0  0.34146  0.85556  0.79720  1.0000
  Ti  Ti3725    1.0  0.07317  0.91429  0.79516  1.0000
  Ti  Ti3726    1.0  0.32927  0.74762  0.79516  1.0000
  Ti  Ti3727    1.0  0.06098  0.80635  0.79312  1.0000
  Ti  Ti3728    1.0  0.31707  0.97302  0.79312  1.0000
  Ti  Ti3729    1.0  0.04878  0.69841  0.79107  1.0000
  Ti  Ti3730    1.0  0.30488  0.86508  0.79107  1.0000
  Ti  Ti3731    1.0  0.03659  0.92381  0.78903  1.0000
  Ti  Ti3732    1.0  0.29268  0.75714  0.78903  1.0000
  Ti  Ti3733    1.0  0.02439  0.81587  0.78699  1.0000
  Ti  Ti3734    1.0  0.28049  0.98254  0.78699  1.0000
  Ti  Ti3735    1.0  0.01220  0.70794  0.78495  1.0000
  Ti  Ti3736    1.0  0.26829  0.87460  0.78495  1.0000
  Ti  Ti3737    1.0  0.00000  0.93333  0.78290  1.0000
  Ti  Ti3738    1.0  0.25610  0.76667  0.78290  1.0000
  Ti  Ti3739    1.0  0.50000  0.82540  0.78086  1.0000
  Ti  Ti3740    1.0  0.24390  0.99206  0.78086  1.0000
  Ti  Ti3741    1.0  0.48780  0.71746  0.77882  1.0000
  Ti  Ti3742    1.0  0.23171  0.88413  0.77882  1.0000
  Ti  Ti3743    1.0  0.47561  0.94286  0.77678  1.0000
  Ti  Ti3744    1.0  0.21951  0.77619  0.77678  1.0000
  Ti  Ti3745    1.0  0.46341  0.83492  0.77473  1.0000
  Ti  Ti3746    1.0  0.20732  0.66825  0.77473  1.0000
  Ti  Ti3747    1.0  0.45122  0.72698  0.77269  1.0000
  Ti  Ti3748    1.0  0.19512  0.89365  0.77269  1.0000
  Ti  Ti3749    1.0  0.43902  0.95238  0.77065  1.0000
  Ti  Ti3750    1.0  0.18293  0.78571  0.77065  1.0000
  Ti  Ti3751    1.0  0.42683  0.84444  0.76861  1.0000
  Ti  Ti3752    1.0  0.17073  0.67778  0.76861  1.0000
  Ti  Ti3753    1.0  0.41463  0.73651  0.76656  1.0000
  Ti  Ti3754    1.0  0.15854  0.90317  0.76656  1.0000
  Ti  Ti3755    1.0  0.40244  0.96190  0.76452  1.0000
  Ti  Ti3756    1.0  0.14634  0.79524  0.76452  1.0000
  Ti  Ti3757    1.0  0.39024  0.85397  0.76248  1.0000
  Ti  Ti3758    1.0  0.13415  0.68730  0.76248  1.0000
  Ti  Ti3759    1.0  0.37805  0.74603  0.76043  1.0000
  Ti  Ti3760    1.0  0.12195  0.91270  0.76043  1.0000
  Ti  Ti3761    1.0  0.36585  0.97143  0.75839  1.0000
  Ti  Ti3762    1.0  0.10976  0.80476  0.75839  1.0000
  Ti  Ti3763    1.0  0.35366  0.86349  0.75635  1.0000
  Ti  Ti3764    1.0  0.09756  0.69683  0.75635  1.0000
  Ti  Ti3765    1.0  0.34146  0.75556  0.75431  1.0000
  Ti  Ti3766    1.0  0.08537  0.92222  0.75431  1.0000
  Ti  Ti3767    1.0  0.32927  0.98095  0.75226  1.0000
  Ti  Ti3768    1.0  0.07317  0.81429  0.75226  1.0000
  Ti  Ti3769    1.0  0.31707  0.87302  0.75022  1.0000
  Ti  Ti3770    1.0  0.06098  0.70635  0.75022  1.0000
  Ti  Ti3771    1.0  0.30488  0.76508  0.74818  1.0000
  Ti  Ti3772    1.0  0.04878  0.93175  0.74818  1.0000
  Ti  Ti3773    1.0  0.29268  0.99048  0.74614  1.0000
  Ti  Ti3774    1.0  0.03659  0.82381  0.74614  1.0000
  Ti  Ti3775    1.0  0.28049  0.88254  0.74409  1.0000
  Ti  Ti3776    1.0  0.02439  0.71587  0.74409  1.0000
  Ti  Ti3777    1.0  0.26829  0.77460  0.74205  1.0000
  Ti  Ti3778    1.0  0.01220  0.94127  0.74205  1.0000
  Ti  Ti3779    1.0  0.25610  0.00000  0.74001  1.0000
  Ti  Ti3780    1.0  0.00000  0.83333  0.74001  1.0000
  Ti  Ti3781    1.0  0.24390  0.89206  0.73797  1.0000
  Ti  Ti3782    1.0  0.50000  0.72540  0.73797  1.0000
  Ti  Ti3783    1.0  0.23171  0.78413  0.73592  1.0000
  Ti  Ti3784    1.0  0.48780  0.95079  0.73592  1.0000
  Ti  Ti3785    1.0  0.21951  0.67619  0.73388  1.0000
  Ti  Ti3786    1.0  0.47561  0.84286  0.73388  1.0000
  Ti  Ti3787    1.0  0.20732  0.90159  0.73184  1.0000
  Ti  Ti3788    1.0  0.46341  0.73492  0.73184  1.0000
  Ti  Ti3789    1.0  0.19512  0.79365  0.72980  1.0000
  Ti  Ti3790    1.0  0.45122  0.96032  0.72980  1.0000
  Ti  Ti3791    1.0  0.18293  0.68571  0.72775  1.0000
  Ti  Ti3792    1.0  0.43902  0.85238  0.72775  1.0000
  Ti  Ti3793    1.0  0.17073  0.91111  0.72571  1.0000
  Ti  Ti3794    1.0  0.42683  0.74444  0.72571  1.0000
  Ti  Ti3795    1.0  0.15854  0.80317  0.72367  1.0000
  Ti  Ti3796    1.0  0.41463  0.96984  0.72367  1.0000
  Ti  Ti3797    1.0  0.14634  0.69524  0.72162  1.0000
  Ti  Ti3798    1.0  0.40244  0.86190  0.72162  1.0000
  Ti  Ti3799    1.0  0.13415  0.92063  0.71958  1.0000
  Ti  Ti3800    1.0  0.39024  0.75397  0.71958  1.0000
  Ti  Ti3801    1.0  0.12195  0.81270  0.71754  1.0000
  Ti  Ti3802    1.0  0.37805  0.97937  0.71754  1.0000
  Ti  Ti3803    1.0  0.10976  0.70476  0.71550  1.0000
  Ti  Ti3804    1.0  0.36585  0.87143  0.71550  1.0000
  Ti  Ti3805    1.0  0.09756  0.93016  0.71345  1.0000
  Ti  Ti3806    1.0  0.35366  0.76349  0.71345  1.0000
  Ti  Ti3807    1.0  0.08537  0.82222  0.71141  1.0000
  Ti  Ti3808    1.0  0.34146  0.98889  0.71141  1.0000
  Ti  Ti3809    1.0  0.07317  0.71429  0.70937  1.0000
  Ti  Ti3810    1.0  0.32927  0.88095  0.70937  1.0000
  Ti  Ti3811    1.0  0.06098  0.93968  0.70733  1.0000
  Ti  Ti3812    1.0  0.31707  0.77302  0.70733  1.0000
  Ti  Ti3813    1.0  0.04878  0.83175  0.70528  1.0000
  Ti  Ti3814    1.0  0.30488  0.99841  0.70528  1.0000
  Ti  Ti3815    1.0  0.03659  0.72381  0.70324  1.0000
  Ti  Ti3816    1.0  0.29268  0.89048  0.70324  1.0000
  Ti  Ti3817    1.0  0.02439  0.94921  0.70120  1.0000
  Ti  Ti3818    1.0  0.28049  0.78254  0.70120  1.0000
  Ti  Ti3819    1.0  0.01220  0.84127  0.69916  1.0000
  Ti  Ti3820    1.0  0.26829  0.67460  0.69916  1.0000
  Ti  Ti3821    1.0  0.00000  0.73333  0.69711  1.0000
  Ti  Ti3822    1.0  0.25610  0.90000  0.69711  1.0000
  Ti  Ti3823    1.0  0.50000  0.95873  0.69507  1.0000
  Ti  Ti3824    1.0  0.24390  0.79206  0.69507  1.0000
  Ti  Ti3825    1.0  0.48780  0.85079  0.69303  1.0000
  Ti  Ti3826    1.0  0.23171  0.68413  0.69303  1.0000
  Ti  Ti3827    1.0  0.47561  0.74286  0.69099  1.0000
  Ti  Ti3828    1.0  0.21951  0.90952  0.69099  1.0000
  Ti  Ti3829    1.0  0.46341  0.96825  0.68894  1.0000
  Ti  Ti3830    1.0  0.20732  0.80159  0.68894  1.0000
  Ti  Ti3831    1.0  0.45122  0.86032  0.68690  1.0000
  Ti  Ti3832    1.0  0.19512  0.69365  0.68690  1.0000
  Ti  Ti3833    1.0  0.43902  0.75238  0.68486  1.0000
  Ti  Ti3834    1.0  0.18293  0.91905  0.68486  1.0000
  Ti  Ti3835    1.0  0.42683  0.97778  0.68281  1.0000
  Ti  Ti3836    1.0  0.17073  0.81111  0.68281  1.0000
  Ti  Ti3837    1.0  0.41463  0.86984  0.68077  1.0000
  Ti  Ti3838    1.0  0.15854  0.70317  0.68077  1.0000
  Ti  Ti3839    1.0  0.40244  0.76190  0.67873  1.0000
  Ti  Ti3840    1.0  0.14634  0.92857  0.67873  1.0000
  Ti  Ti3841    1.0  0.39024  0.98730  0.67669  1.0000
  Ti  Ti3842    1.0  0.13415  0.82063  0.67669  1.0000
  Ti  Ti3843    1.0  0.37805  0.87937  0.67464  1.0000
  Ti  Ti3844    1.0  0.12195  0.71270  0.67464  1.0000
  Ti  Ti3845    1.0  0.36585  0.77143  0.67260  1.0000
  Ti  Ti3846    1.0  0.10976  0.93810  0.67260  1.0000
  Ti  Ti3847    1.0  0.35366  0.99683  0.67056  1.0000
  Ti  Ti3848    1.0  0.09756  0.83016  0.67056  1.0000
  Ti  Ti3849    1.0  0.34146  0.88889  0.66852  1.0000
  Ti  Ti3850    1.0  0.08537  0.72222  0.66852  1.0000
  Ti  Ti3851    1.0  0.32927  0.78095  0.66647  1.0000
  Ti  Ti3852    1.0  0.07317  0.94762  0.66647  1.0000
  Ti  Ti3853    1.0  0.31707  0.67302  0.66443  1.0000
  Ti  Ti3854    1.0  0.06098  0.83968  0.66443  1.0000
  Ti  Ti3855    1.0  0.30488  0.89841  0.66239  1.0000
  Ti  Ti3856    1.0  0.04878  0.73175  0.66239  1.0000
  Ti  Ti3857    1.0  0.29268  0.79048  0.66035  1.0000
  Ti  Ti3858    1.0  0.03659  0.95714  0.66035  1.0000
  Ti  Ti3859    1.0  0.28049  0.68254  0.65830  1.0000
  Ti  Ti3860    1.0  0.02439  0.84921  0.65830  1.0000
  Ti  Ti3861    1.0  0.26829  0.90794  0.65626  1.0000
  Ti  Ti3862    1.0  0.01220  0.74127  0.65626  1.0000
  Ti  Ti3863    1.0  0.25610  0.80000  0.65422  1.0000
  Ti  Ti3864    1.0  0.00000  0.96667  0.65422  1.0000
  Ti  Ti3865    1.0  0.24390  0.69206  0.65218  1.0000
  Ti  Ti3866    1.0  0.50000  0.85873  0.65218  1.0000
  Ti  Ti3867    1.0  0.23171  0.91746  0.65013  1.0000
  Ti  Ti3868    1.0  0.48780  0.75079  0.65013  1.0000
  Ti  Ti3869    1.0  0.21951  0.80952  0.64809  1.0000
  Ti  Ti3870    1.0  0.47561  0.97619  0.64809  1.0000
  Ti  Ti3871    1.0  0.20732  0.70159  0.64605  1.0000
  Ti  Ti3872    1.0  0.46341  0.86825  0.64605  1.0000
  Ti  Ti3873    1.0  0.19512  0.92698  0.64400  1.0000
  Ti  Ti3874    1.0  0.45122  0.76032  0.64400  1.0000
  Ti  Ti3875    1.0  0.18293  0.81905  0.64196  1.0000
  Ti  Ti3876    1.0  0.43902  0.98571  0.64196  1.0000
  Ti  Ti3877    1.0  0.17073  0.71111  0.63992  1.0000
  Ti  Ti3878    1.0  0.42683  0.87778  0.63992  1.0000
  Ti  Ti3879    1.0  0.15854  0.93651  0.63788  1.0000
  Ti  Ti3880    1.0  0.41463  0.76984  0.63788  1.0000
  Ti  Ti3881    1.0  0.14634  0.82857  0.63583  1.0000
  Ti  Ti3882    1.0  0.40244  0.99524  0.63583  1.0000
  Ti  Ti3883    1.0  0.13415  0.72063  0.63379  1.0000
  Ti  Ti3884    1.0  0.39024  0.88730  0.63379  1.0000
  Ti  Ti3885    1.0  0.12195  0.94603  0.63175  1.0000
  Ti  Ti3886    1.0  0.37805  0.77937  0.63175  1.0000
  Ti  Ti3887    1.0  0.10976  0.83810  0.62971  1.0000
  Ti  Ti3888    1.0  0.36585  0.67143  0.62971  1.0000
  Ti  Ti3889    1.0  0.09756  0.73016  0.62766  1.0000
  Ti  Ti3890    1.0  0.35366  0.89683  0.62766  1.0000
  Ti  Ti3891    1.0  0.08537  0.95556  0.62562  1.0000
  Ti  Ti3892    1.0  0.34146  0.78889  0.62562  1.0000
  Ti  Ti3893    1.0  0.07317  0.84762  0.62358  1.0000
  Ti  Ti3894    1.0  0.32927  0.68095  0.62358  1.0000
  Ti  Ti3895    1.0  0.06098  0.73968  0.62154  1.0000
  Ti  Ti3896    1.0  0.31707  0.90635  0.62154  1.0000
  Ti  Ti3897    1.0  0.04878  0.96508  0.61949  1.0000
  Ti  Ti3898    1.0  0.30488  0.79841  0.61949  1.0000
  Ti  Ti3899    1.0  0.03659  0.85714  0.61745  1.0000
  Ti  Ti3900    1.0  0.29268  0.69048  0.61745  1.0000
  Ti  Ti3901    1.0  0.02439  0.74921  0.61541  1.0000
  Ti  Ti3902    1.0  0.28049  0.91587  0.61541  1.0000
  Ti  Ti3903    1.0  0.01220  0.97460  0.61337  1.0000
  Ti  Ti3904    1.0  0.26829  0.80794  0.61337  1.0000
  Ti  Ti3905    1.0  0.00000  0.86667  0.61132  1.0000
  Ti  Ti3906    1.0  0.25610  0.70000  0.61132  1.0000
  Ti  Ti3907    1.0  0.50000  0.75873  0.60928  1.0000
  Ti  Ti3908    1.0  0.24390  0.92540  0.60928  1.0000
  Ti  Ti3909    1.0  0.48780  0.98413  0.60724  1.0000
  Ti  Ti3910    1.0  0.23171  0.81746  0.60724  1.0000
  Ti  Ti3911    1.0  0.47561  0.87619  0.60520  1.0000
  Ti  Ti3912    1.0  0.21951  0.70952  0.60520  1.0000
  Ti  Ti3913    1.0  0.46341  0.76825  0.60315  1.0000
  Ti  Ti3914    1.0  0.20732  0.93492  0.60315  1.0000
  Ti  Ti3915    1.0  0.45122  0.99365  0.60111  1.0000
  Ti  Ti3916    1.0  0.19512  0.82698  0.60111  1.0000
  Ti  Ti3917    1.0  0.43902  0.88571  0.59907  1.0000
  Ti  Ti3918    1.0  0.18293  0.71905  0.59907  1.0000
  Ti  Ti3919    1.0  0.42683  0.77778  0.59702  1.0000
  Ti  Ti3920    1.0  0.17073  0.94444  0.59702  1.0000
  Ti  Ti3921    1.0  0.41463  0.66984  0.59498  1.0000
  Ti  Ti3922    1.0  0.15854  0.83651  0.59498  1.0000
  Ti  Ti3923    1.0  0.40244  0.89524  0.59294  1.0000
  Ti  Ti3924    1.0  0.14634  0.72857  0.59294  1.0000
  Ti  Ti3925    1.0  0.39024  0.78730  0.59090  1.0000
  Ti  Ti3926    1.0  0.13415  0.95397  0.59090  1.0000
  Ti  Ti3927    1.0  0.37805  0.67937  0.58885  1.0000
  Ti  Ti3928    1.0  0.12195  0.84603  0.58885  1.0000
  Ti  Ti3929    1.0  0.36585  0.90476  0.58681  1.0000
  Ti  Ti3930    1.0  0.10976  0.73810  0.58681  1.0000
  Ti  Ti3931    1.0  0.35366  0.79683  0.58477  1.0000
  Ti  Ti3932    1.0  0.09756  0.96349  0.58477  1.0000
  Ti  Ti3933    1.0  0.34146  0.68889  0.58273  1.0000
  Ti  Ti3934    1.0  0.08537  0.85556  0.58273  1.0000
  Ti  Ti3935    1.0  0.32927  0.91429  0.58068  1.0000
  Ti  Ti3936    1.0  0.07317  0.74762  0.58068  1.0000
  Ti  Ti3937    1.0  0.31707  0.80635  0.57864  1.0000
  Ti  Ti3938    1.0  0.06098  0.97302  0.57864  1.0000
  Ti  Ti3939    1.0  0.30488  0.69841  0.57660  1.0000
  Ti  Ti3940    1.0  0.04878  0.86508  0.57660  1.0000
  Ti  Ti3941    1.0  0.29268  0.92381  0.57456  1.0000
  Ti  Ti3942    1.0  0.03659  0.75714  0.57456  1.0000
  Ti  Ti3943    1.0  0.28049  0.81587  0.57251  1.0000
  Ti  Ti3944    1.0  0.02439  0.98254  0.57251  1.0000
  Ti  Ti3945    1.0  0.26829  0.70794  0.57047  1.0000
  Ti  Ti3946    1.0  0.01220  0.87460  0.57047  1.0000
  Ti  Ti3947    1.0  0.25610  0.93333  0.56843  1.0000
  Ti  Ti3948    1.0  0.00000  0.76667  0.56843  1.0000
  Ti  Ti3949    1.0  0.24390  0.82540  0.56639  1.0000
  Ti  Ti3950    1.0  0.50000  0.99206  0.56639  1.0000
  Ti  Ti3951    1.0  0.23171  0.71746  0.56434  1.0000
  Ti  Ti3952    1.0  0.48780  0.88413  0.56434  1.0000
  Ti  Ti3953    1.0  0.21951  0.94286  0.56230  1.0000
  Ti  Ti3954    1.0  0.47561  0.77619  0.56230  1.0000
  Ti  Ti3955    1.0  0.20732  0.83492  0.56026  1.0000
  Ti  Ti3956    1.0  0.46341  0.66825  0.56026  1.0000
  Ti  Ti3957    1.0  0.19512  0.72698  0.55821  1.0000
  Ti  Ti3958    1.0  0.45122  0.89365  0.55821  1.0000
  Ti  Ti3959    1.0  0.18293  0.95238  0.55617  1.0000
  Ti  Ti3960    1.0  0.43902  0.78571  0.55617  1.0000
  Ti  Ti3961    1.0  0.17073  0.84444  0.55413  1.0000
  Ti  Ti3962    1.0  0.42683  0.67778  0.55413  1.0000
  Ti  Ti3963    1.0  0.15854  0.73651  0.55209  1.0000
  Ti  Ti3964    1.0  0.41463  0.90317  0.55209  1.0000
  Ti  Ti3965    1.0  0.14634  0.96190  0.55004  1.0000
  Ti  Ti3966    1.0  0.40244  0.79524  0.55004  1.0000
  Ti  Ti3967    1.0  0.13415  0.85397  0.54800  1.0000
  Ti  Ti3968    1.0  0.39024  0.68730  0.54800  1.0000
  Ti  Ti3969    1.0  0.12195  0.74603  0.54596  1.0000
  Ti  Ti3970    1.0  0.37805  0.91270  0.54596  1.0000
  Ti  Ti3971    1.0  0.10976  0.97143  0.54392  1.0000
  Ti  Ti3972    1.0  0.36585  0.80476  0.54392  1.0000
  Ti  Ti3973    1.0  0.09756  0.86349  0.54187  1.0000
  Ti  Ti3974    1.0  0.35366  0.69683  0.54187  1.0000
  Ti  Ti3975    1.0  0.08537  0.75556  0.53983  1.0000
  Ti  Ti3976    1.0  0.34146  0.92222  0.53983  1.0000
  Ti  Ti3977    1.0  0.07317  0.98095  0.53779  1.0000
  Ti  Ti3978    1.0  0.32927  0.81429  0.53779  1.0000
  Ti  Ti3979    1.0  0.06098  0.87302  0.53575  1.0000
  Ti  Ti3980    1.0  0.31707  0.70635  0.53575  1.0000
  Ti  Ti3981    1.0  0.04878  0.76508  0.53370  1.0000
  Ti  Ti3982    1.0  0.30488  0.93175  0.53370  1.0000
  Ti  Ti3983    1.0  0.03659  0.99048  0.53166  1.0000
  Ti  Ti3984    1.0  0.29268  0.82381  0.53166  1.0000
  Ti  Ti3985    1.0  0.02439  0.88254  0.52962  1.0000
  Ti  Ti3986    1.0  0.28049  0.71587  0.52962  1.0000
  Ti  Ti3987    1.0  0.01220  0.77460  0.52758  1.0000
  Ti  Ti3988    1.0  0.26829  0.94127  0.52758  1.0000
  Ti  Ti3989    1.0  0.00000  1.00000  0.52553  1.0000
  Ti  Ti3990    1.0  0.25610  0.83333  0.52553  1.0000
  Ti  Ti3991    1.0  0.50000  0.89206  0.52349  1.0000
  Ti  Ti3992    1.0  0.24390  0.72540  0.52349  1.0000
  Ti  Ti3993    1.0  0.48780  0.78413  0.52145  1.0000
  Ti  Ti3994    1.0  0.23171  0.95079  0.52145  1.0000
  Ti  Ti3995    1.0  0.47561  0.67619  0.51940  1.0000
  Ti  Ti3996    1.0  0.21951  0.84286  0.51940  1.0000
  Ti  Ti3997    1.0  0.46341  0.90159  0.51736  1.0000
  Ti  Ti3998    1.0  0.20732  0.73492  0.51736  1.0000
  Ti  Ti3999    1.0  0.45122  0.79365  0.51532  1.0000
  Ti  Ti4000    1.0  0.19512  0.96032  0.51532  1.0000
  Ti  Ti4001    1.0  0.43902  0.68571  0.51328  1.0000
  Ti  Ti4002    1.0  0.18293  0.85238  0.51328  1.0000
  Ti  Ti4003    1.0  0.42683  0.91111  0.51123  1.0000
  Ti  Ti4004    1.0  0.17073  0.74444  0.51123  1.0000
  Ti  Ti4005    1.0  0.41463  0.80317  0.50919  1.0000
  Ti  Ti4006    1.0  0.15854  0.96984  0.50919  1.0000
  Ti  Ti4007    1.0  0.40244  0.69524  0.50715  1.0000
  Ti  Ti4008    1.0  0.14634  0.86190  0.50715  1.0000
  Ti  Ti4009    1.0  0.39024  0.92063  0.50511  1.0000
  Ti  Ti4010    1.0  0.13415  0.75397  0.50511  1.0000
  Ti  Ti4011    1.0  0.37805  0.81270  0.50306  1.0000
  Ti  Ti4012    1.0  0.12195  0.97937  0.50306  1.0000
  Ti  Ti4013    1.0  0.36585  0.70476  0.50102  1.0000
  Ti  Ti4014    1.0  0.10976  0.87143  0.50102  1.0000
  Ti  Ti4015    1.0  0.50000  0.00000  0.95448  1.0000
  Ti  Ti4016    1.0  0.75610  0.16667  0.95448  1.0000
  Ti  Ti4017    1.0  1.00000  0.22540  0.95244  1.0000
  Ti  Ti4018    1.0  0.74390  0.05873  0.95244  1.0000
  Ti  Ti4019    1.0  0.98780  0.11746  0.95040  1.0000
  Ti  Ti4020    1.0  0.73171  0.28413  0.95040  1.0000
  Ti  Ti4021    1.0  0.97561  0.00952  0.94836  1.0000
  Ti  Ti4022    1.0  0.71951  0.17619  0.94836  1.0000
  Ti  Ti4023    1.0  0.96341  0.23492  0.94631  1.0000
  Ti  Ti4024    1.0  0.70732  0.06825  0.94631  1.0000
  Ti  Ti4025    1.0  0.95122  0.12698  0.94427  1.0000
  Ti  Ti4026    1.0  0.69512  0.29365  0.94427  1.0000
  Ti  Ti4027    1.0  0.93902  0.01905  0.94223  1.0000
  Ti  Ti4028    1.0  0.68293  0.18571  0.94223  1.0000
  Ti  Ti4029    1.0  0.92683  0.24444  0.94019  1.0000
  Ti  Ti4030    1.0  0.67073  0.07778  0.94019  1.0000
  Ti  Ti4031    1.0  0.91463  0.13651  0.93814  1.0000
  Ti  Ti4032    1.0  0.65854  0.30317  0.93814  1.0000
  Ti  Ti4033    1.0  0.90244  0.02857  0.93610  1.0000
  Ti  Ti4034    1.0  0.64634  0.19524  0.93610  1.0000
  Ti  Ti4035    1.0  0.89024  0.25397  0.93406  1.0000
  Ti  Ti4036    1.0  0.63415  0.08730  0.93406  1.0000
  Ti  Ti4037    1.0  0.87805  0.14603  0.93201  1.0000
  Ti  Ti4038    1.0  0.62195  0.31270  0.93201  1.0000
  Ti  Ti4039    1.0  0.86585  0.03810  0.92997  1.0000
  Ti  Ti4040    1.0  0.60976  0.20476  0.92997  1.0000
  Ti  Ti4041    1.0  0.85366  0.26349  0.92793  1.0000
  Ti  Ti4042    1.0  0.59756  0.09683  0.92793  1.0000
  Ti  Ti4043    1.0  0.84146  0.15556  0.92589  1.0000
  Ti  Ti4044    1.0  0.58537  0.32222  0.92589  1.0000
  Ti  Ti4045    1.0  0.82927  0.04762  0.92384  1.0000
  Ti  Ti4046    1.0  0.57317  0.21429  0.92384  1.0000
  Ti  Ti4047    1.0  0.81707  0.27302  0.92180  1.0000
  Ti  Ti4048    1.0  0.56098  0.10635  0.92180  1.0000
  Ti  Ti4049    1.0  0.80488  0.16508  0.91976  1.0000
  Ti  Ti4050    1.0  0.54878  0.33175  0.91976  1.0000
  Ti  Ti4051    1.0  0.79268  0.05714  0.91772  1.0000
  Ti  Ti4052    1.0  0.53659  0.22381  0.91772  1.0000
  Ti  Ti4053    1.0  0.78049  0.28254  0.91567  1.0000
  Ti  Ti4054    1.0  0.52439  0.11587  0.91567  1.0000
  Ti  Ti4055    1.0  0.76829  0.17460  0.91363  1.0000
  Ti  Ti4056    1.0  0.51220  0.00794  0.91363  1.0000
  Ti  Ti4057    1.0  0.75610  0.06667  0.91159  1.0000
  Ti  Ti4058    1.0  0.50000  0.23333  0.91159  1.0000
  Ti  Ti4059    1.0  0.74390  0.29206  0.90955  1.0000
  Ti  Ti4060    1.0  1.00000  0.12540  0.90955  1.0000
  Ti  Ti4061    1.0  0.73171  0.18413  0.90750  1.0000
  Ti  Ti4062    1.0  0.98780  0.01746  0.90750  1.0000
  Ti  Ti4063    1.0  0.71951  0.07619  0.90546  1.0000
  Ti  Ti4064    1.0  0.97561  0.24286  0.90546  1.0000
  Ti  Ti4065    1.0  0.70732  0.30159  0.90342  1.0000
  Ti  Ti4066    1.0  0.96341  0.13492  0.90342  1.0000
  Ti  Ti4067    1.0  0.69512  0.19365  0.90138  1.0000
  Ti  Ti4068    1.0  0.95122  0.02698  0.90138  1.0000
  Ti  Ti4069    1.0  0.68293  0.08571  0.89933  1.0000
  Ti  Ti4070    1.0  0.93902  0.25238  0.89933  1.0000
  Ti  Ti4071    1.0  0.67073  0.31111  0.89729  1.0000
  Ti  Ti4072    1.0  0.92683  0.14444  0.89729  1.0000
  Ti  Ti4073    1.0  0.65854  0.20317  0.89525  1.0000
  Ti  Ti4074    1.0  0.91463  0.03651  0.89525  1.0000
  Ti  Ti4075    1.0  0.64634  0.09524  0.89321  1.0000
  Ti  Ti4076    1.0  0.90244  0.26190  0.89321  1.0000
  Ti  Ti4077    1.0  0.63415  0.32063  0.89116  1.0000
  Ti  Ti4078    1.0  0.89024  0.15397  0.89116  1.0000
  Ti  Ti4079    1.0  0.62195  0.21270  0.88912  1.0000
  Ti  Ti4080    1.0  0.87805  0.04603  0.88912  1.0000
  Ti  Ti4081    1.0  0.60976  0.10476  0.88708  1.0000
  Ti  Ti4082    1.0  0.86585  0.27143  0.88708  1.0000
  Ti  Ti4083    1.0  0.59756  0.33016  0.88503  1.0000
  Ti  Ti4084    1.0  0.85366  0.16349  0.88503  1.0000
  Ti  Ti4085    1.0  0.58537  0.22222  0.88299  1.0000
  Ti  Ti4086    1.0  0.84146  0.05556  0.88299  1.0000
  Ti  Ti4087    1.0  0.57317  0.11429  0.88095  1.0000
  Ti  Ti4088    1.0  0.82927  0.28095  0.88095  1.0000
  Ti  Ti4089    1.0  0.56098  0.00635  0.87891  1.0000
  Ti  Ti4090    1.0  0.81707  0.17302  0.87891  1.0000
  Ti  Ti4091    1.0  0.54878  0.23175  0.87686  1.0000
  Ti  Ti4092    1.0  0.80488  0.06508  0.87686  1.0000
  Ti  Ti4093    1.0  0.53659  0.12381  0.87482  1.0000
  Ti  Ti4094    1.0  0.79268  0.29048  0.87482  1.0000
  Ti  Ti4095    1.0  0.52439  0.01587  0.87278  1.0000
  Ti  Ti4096    1.0  0.78049  0.18254  0.87278  1.0000
  Ti  Ti4097    1.0  0.51220  0.24127  0.87074  1.0000
  Ti  Ti4098    1.0  0.76829  0.07460  0.87074  1.0000
  Ti  Ti4099    1.0  0.50000  0.13333  0.86869  1.0000
  Ti  Ti4100    1.0  0.75610  0.30000  0.86869  1.0000
  Ti  Ti4101    1.0  1.00000  0.02540  0.86665  1.0000
  Ti  Ti4102    1.0  0.74390  0.19206  0.86665  1.0000
  Ti  Ti4103    1.0  0.98780  0.25079  0.86461  1.0000
  Ti  Ti4104    1.0  0.73171  0.08413  0.86461  1.0000
  Ti  Ti4105    1.0  0.97561  0.14286  0.86257  1.0000
  Ti  Ti4106    1.0  0.71951  0.30952  0.86257  1.0000
  Ti  Ti4107    1.0  0.96341  0.03492  0.86052  1.0000
  Ti  Ti4108    1.0  0.70732  0.20159  0.86052  1.0000
  Ti  Ti4109    1.0  0.95122  0.26032  0.85848  1.0000
  Ti  Ti4110    1.0  0.69512  0.09365  0.85848  1.0000
  Ti  Ti4111    1.0  0.93902  0.15238  0.85644  1.0000
  Ti  Ti4112    1.0  0.68293  0.31905  0.85644  1.0000
  Ti  Ti4113    1.0  0.92683  0.04444  0.85440  1.0000
  Ti  Ti4114    1.0  0.67073  0.21111  0.85440  1.0000
  Ti  Ti4115    1.0  0.91463  0.26984  0.85235  1.0000
  Ti  Ti4116    1.0  0.65854  0.10317  0.85235  1.0000
  Ti  Ti4117    1.0  0.90244  0.16190  0.85031  1.0000
  Ti  Ti4118    1.0  0.64634  0.32857  0.85031  1.0000
  Ti  Ti4119    1.0  0.89024  0.05397  0.84827  1.0000
  Ti  Ti4120    1.0  0.63415  0.22063  0.84827  1.0000
  Ti  Ti4121    1.0  0.87805  0.27937  0.84622  1.0000
  Ti  Ti4122    1.0  0.62195  0.11270  0.84622  1.0000
  Ti  Ti4123    1.0  0.86585  0.17143  0.84418  1.0000
  Ti  Ti4124    1.0  0.60976  0.00476  0.84418  1.0000
  Ti  Ti4125    1.0  0.85366  0.06349  0.84214  1.0000
  Ti  Ti4126    1.0  0.59756  0.23016  0.84214  1.0000
  Ti  Ti4127    1.0  0.84146  0.28889  0.84010  1.0000
  Ti  Ti4128    1.0  0.58537  0.12222  0.84010  1.0000
  Ti  Ti4129    1.0  0.82927  0.18095  0.83805  1.0000
  Ti  Ti4130    1.0  0.57317  0.01429  0.83805  1.0000
  Ti  Ti4131    1.0  0.81707  0.07302  0.83601  1.0000
  Ti  Ti4132    1.0  0.56098  0.23968  0.83601  1.0000
  Ti  Ti4133    1.0  0.80488  0.29841  0.83397  1.0000
  Ti  Ti4134    1.0  0.54878  0.13175  0.83397  1.0000
  Ti  Ti4135    1.0  0.79268  0.19048  0.83193  1.0000
  Ti  Ti4136    1.0  0.53659  0.02381  0.83193  1.0000
  Ti  Ti4137    1.0  0.78049  0.08254  0.82988  1.0000
  Ti  Ti4138    1.0  0.52439  0.24921  0.82988  1.0000
  Ti  Ti4139    1.0  0.76829  0.30794  0.82784  1.0000
  Ti  Ti4140    1.0  0.51220  0.14127  0.82784  1.0000
  Ti  Ti4141    1.0  0.75610  0.20000  0.82580  1.0000
  Ti  Ti4142    1.0  0.50000  0.03333  0.82580  1.0000
  Ti  Ti4143    1.0  0.74390  0.09206  0.82376  1.0000
  Ti  Ti4144    1.0  1.00000  0.25873  0.82376  1.0000
  Ti  Ti4145    1.0  0.73171  0.31746  0.82171  1.0000
  Ti  Ti4146    1.0  0.98780  0.15079  0.82171  1.0000
  Ti  Ti4147    1.0  0.71951  0.20952  0.81967  1.0000
  Ti  Ti4148    1.0  0.97561  0.04286  0.81967  1.0000
  Ti  Ti4149    1.0  0.70732  0.10159  0.81763  1.0000
  Ti  Ti4150    1.0  0.96341  0.26825  0.81763  1.0000
  Ti  Ti4151    1.0  0.69512  0.32698  0.81559  1.0000
  Ti  Ti4152    1.0  0.95122  0.16032  0.81559  1.0000
  Ti  Ti4153    1.0  0.68293  0.21905  0.81354  1.0000
  Ti  Ti4154    1.0  0.93902  0.05238  0.81354  1.0000
  Ti  Ti4155    1.0  0.67073  0.11111  0.81150  1.0000
  Ti  Ti4156    1.0  0.92683  0.27778  0.81150  1.0000
  Ti  Ti4157    1.0  0.65854  0.00317  0.80946  1.0000
  Ti  Ti4158    1.0  0.91463  0.16984  0.80946  1.0000
  Ti  Ti4159    1.0  0.64634  0.22857  0.80741  1.0000
  Ti  Ti4160    1.0  0.90244  0.06190  0.80741  1.0000
  Ti  Ti4161    1.0  0.63415  0.12063  0.80537  1.0000
  Ti  Ti4162    1.0  0.89024  0.28730  0.80537  1.0000
  Ti  Ti4163    1.0  0.62195  0.01270  0.80333  1.0000
  Ti  Ti4164    1.0  0.87805  0.17937  0.80333  1.0000
  Ti  Ti4165    1.0  0.60976  0.23810  0.80129  1.0000
  Ti  Ti4166    1.0  0.86585  0.07143  0.80129  1.0000
  Ti  Ti4167    1.0  0.59756  0.13016  0.79924  1.0000
  Ti  Ti4168    1.0  0.85366  0.29683  0.79924  1.0000
  Ti  Ti4169    1.0  0.58537  0.02222  0.79720  1.0000
  Ti  Ti4170    1.0  0.84146  0.18889  0.79720  1.0000
  Ti  Ti4171    1.0  0.57317  0.24762  0.79516  1.0000
  Ti  Ti4172    1.0  0.82927  0.08095  0.79516  1.0000
  Ti  Ti4173    1.0  0.56098  0.13968  0.79312  1.0000
  Ti  Ti4174    1.0  0.81707  0.30635  0.79312  1.0000
  Ti  Ti4175    1.0  0.54878  0.03175  0.79107  1.0000
  Ti  Ti4176    1.0  0.80488  0.19841  0.79107  1.0000
  Ti  Ti4177    1.0  0.53659  0.25714  0.78903  1.0000
  Ti  Ti4178    1.0  0.79268  0.09048  0.78903  1.0000
  Ti  Ti4179    1.0  0.52439  0.14921  0.78699  1.0000
  Ti  Ti4180    1.0  0.78049  0.31587  0.78699  1.0000
  Ti  Ti4181    1.0  0.51220  0.04127  0.78495  1.0000
  Ti  Ti4182    1.0  0.76829  0.20794  0.78495  1.0000
  Ti  Ti4183    1.0  0.50000  0.26667  0.78290  1.0000
  Ti  Ti4184    1.0  0.75610  0.10000  0.78290  1.0000
  Ti  Ti4185    1.0  1.00000  0.15873  0.78086  1.0000
  Ti  Ti4186    1.0  0.74390  0.32540  0.78086  1.0000
  Ti  Ti4187    1.0  0.98780  0.05079  0.77882  1.0000
  Ti  Ti4188    1.0  0.73171  0.21746  0.77882  1.0000
  Ti  Ti4189    1.0  0.97561  0.27619  0.77678  1.0000
  Ti  Ti4190    1.0  0.71951  0.10952  0.77678  1.0000
  Ti  Ti4191    1.0  0.96341  0.16825  0.77473  1.0000
  Ti  Ti4192    1.0  0.70732  0.00159  0.77473  1.0000
  Ti  Ti4193    1.0  0.95122  0.06032  0.77269  1.0000
  Ti  Ti4194    1.0  0.69512  0.22698  0.77269  1.0000
  Ti  Ti4195    1.0  0.93902  0.28571  0.77065  1.0000
  Ti  Ti4196    1.0  0.68293  0.11905  0.77065  1.0000
  Ti  Ti4197    1.0  0.92683  0.17778  0.76861  1.0000
  Ti  Ti4198    1.0  0.67073  0.01111  0.76861  1.0000
  Ti  Ti4199    1.0  0.91463  0.06984  0.76656  1.0000
  Ti  Ti4200    1.0  0.65854  0.23651  0.76656  1.0000
  Ti  Ti4201    1.0  0.90244  0.29524  0.76452  1.0000
  Ti  Ti4202    1.0  0.64634  0.12857  0.76452  1.0000
  Ti  Ti4203    1.0  0.89024  0.18730  0.76248  1.0000
  Ti  Ti4204    1.0  0.63415  0.02063  0.76248  1.0000
  Ti  Ti4205    1.0  0.87805  0.07937  0.76043  1.0000
  Ti  Ti4206    1.0  0.62195  0.24603  0.76043  1.0000
  Ti  Ti4207    1.0  0.86585  0.30476  0.75839  1.0000
  Ti  Ti4208    1.0  0.60976  0.13810  0.75839  1.0000
  Ti  Ti4209    1.0  0.85366  0.19683  0.75635  1.0000
  Ti  Ti4210    1.0  0.59756  0.03016  0.75635  1.0000
  Ti  Ti4211    1.0  0.84146  0.08889  0.75431  1.0000
  Ti  Ti4212    1.0  0.58537  0.25556  0.75431  1.0000
  Ti  Ti4213    1.0  0.82927  0.31429  0.75226  1.0000
  Ti  Ti4214    1.0  0.57317  0.14762  0.75226  1.0000
  Ti  Ti4215    1.0  0.81707  0.20635  0.75022  1.0000
  Ti  Ti4216    1.0  0.56098  0.03968  0.75022  1.0000
  Ti  Ti4217    1.0  0.80488  0.09841  0.74818  1.0000
  Ti  Ti4218    1.0  0.54878  0.26508  0.74818  1.0000
  Ti  Ti4219    1.0  0.79268  0.32381  0.74614  1.0000
  Ti  Ti4220    1.0  0.53659  0.15714  0.74614  1.0000
  Ti  Ti4221    1.0  0.78049  0.21587  0.74409  1.0000
  Ti  Ti4222    1.0  0.52439  0.04921  0.74409  1.0000
  Ti  Ti4223    1.0  0.76829  0.10794  0.74205  1.0000
  Ti  Ti4224    1.0  0.51220  0.27460  0.74205  1.0000
  Ti  Ti4225    1.0  0.75610  0.33333  0.74001  1.0000
  Ti  Ti4226    1.0  0.50000  0.16667  0.74001  1.0000
  Ti  Ti4227    1.0  0.74390  0.22540  0.73797  1.0000
  Ti  Ti4228    1.0  1.00000  0.05873  0.73797  1.0000
  Ti  Ti4229    1.0  0.73171  0.11746  0.73592  1.0000
  Ti  Ti4230    1.0  0.98780  0.28413  0.73592  1.0000
  Ti  Ti4231    1.0  0.71951  0.00952  0.73388  1.0000
  Ti  Ti4232    1.0  0.97561  0.17619  0.73388  1.0000
  Ti  Ti4233    1.0  0.70732  0.23492  0.73184  1.0000
  Ti  Ti4234    1.0  0.96341  0.06825  0.73184  1.0000
  Ti  Ti4235    1.0  0.69512  0.12698  0.72980  1.0000
  Ti  Ti4236    1.0  0.95122  0.29365  0.72980  1.0000
  Ti  Ti4237    1.0  0.68293  0.01905  0.72775  1.0000
  Ti  Ti4238    1.0  0.93902  0.18571  0.72775  1.0000
  Ti  Ti4239    1.0  0.67073  0.24444  0.72571  1.0000
  Ti  Ti4240    1.0  0.92683  0.07778  0.72571  1.0000
  Ti  Ti4241    1.0  0.65854  0.13651  0.72367  1.0000
  Ti  Ti4242    1.0  0.91463  0.30317  0.72367  1.0000
  Ti  Ti4243    1.0  0.64634  0.02857  0.72162  1.0000
  Ti  Ti4244    1.0  0.90244  0.19524  0.72162  1.0000
  Ti  Ti4245    1.0  0.63415  0.25397  0.71958  1.0000
  Ti  Ti4246    1.0  0.89024  0.08730  0.71958  1.0000
  Ti  Ti4247    1.0  0.62195  0.14603  0.71754  1.0000
  Ti  Ti4248    1.0  0.87805  0.31270  0.71754  1.0000
  Ti  Ti4249    1.0  0.60976  0.03810  0.71550  1.0000
  Ti  Ti4250    1.0  0.86585  0.20476  0.71550  1.0000
  Ti  Ti4251    1.0  0.59756  0.26349  0.71345  1.0000
  Ti  Ti4252    1.0  0.85366  0.09683  0.71345  1.0000
  Ti  Ti4253    1.0  0.58537  0.15556  0.71141  1.0000
  Ti  Ti4254    1.0  0.84146  0.32222  0.71141  1.0000
  Ti  Ti4255    1.0  0.57317  0.04762  0.70937  1.0000
  Ti  Ti4256    1.0  0.82927  0.21429  0.70937  1.0000
  Ti  Ti4257    1.0  0.56098  0.27302  0.70733  1.0000
  Ti  Ti4258    1.0  0.81707  0.10635  0.70733  1.0000
  Ti  Ti4259    1.0  0.54878  0.16508  0.70528  1.0000
  Ti  Ti4260    1.0  0.80488  0.33175  0.70528  1.0000
  Ti  Ti4261    1.0  0.53659  0.05714  0.70324  1.0000
  Ti  Ti4262    1.0  0.79268  0.22381  0.70324  1.0000
  Ti  Ti4263    1.0  0.52439  0.28254  0.70120  1.0000
  Ti  Ti4264    1.0  0.78049  0.11587  0.70120  1.0000
  Ti  Ti4265    1.0  0.51220  0.17460  0.69916  1.0000
  Ti  Ti4266    1.0  0.76829  0.00794  0.69916  1.0000
  Ti  Ti4267    1.0  0.50000  0.06667  0.69711  1.0000
  Ti  Ti4268    1.0  0.75610  0.23333  0.69711  1.0000
  Ti  Ti4269    1.0  1.00000  0.29206  0.69507  1.0000
  Ti  Ti4270    1.0  0.74390  0.12540  0.69507  1.0000
  Ti  Ti4271    1.0  0.98780  0.18413  0.69303  1.0000
  Ti  Ti4272    1.0  0.73171  0.01746  0.69303  1.0000
  Ti  Ti4273    1.0  0.97561  0.07619  0.69099  1.0000
  Ti  Ti4274    1.0  0.71951  0.24286  0.69099  1.0000
  Ti  Ti4275    1.0  0.96341  0.30159  0.68894  1.0000
  Ti  Ti4276    1.0  0.70732  0.13492  0.68894  1.0000
  Ti  Ti4277    1.0  0.95122  0.19365  0.68690  1.0000
  Ti  Ti4278    1.0  0.69512  0.02698  0.68690  1.0000
  Ti  Ti4279    1.0  0.93902  0.08571  0.68486  1.0000
  Ti  Ti4280    1.0  0.68293  0.25238  0.68486  1.0000
  Ti  Ti4281    1.0  0.92683  0.31111  0.68281  1.0000
  Ti  Ti4282    1.0  0.67073  0.14444  0.68281  1.0000
  Ti  Ti4283    1.0  0.91463  0.20317  0.68077  1.0000
  Ti  Ti4284    1.0  0.65854  0.03651  0.68077  1.0000
  Ti  Ti4285    1.0  0.90244  0.09524  0.67873  1.0000
  Ti  Ti4286    1.0  0.64634  0.26190  0.67873  1.0000
  Ti  Ti4287    1.0  0.89024  0.32063  0.67669  1.0000
  Ti  Ti4288    1.0  0.63415  0.15397  0.67669  1.0000
  Ti  Ti4289    1.0  0.87805  0.21270  0.67464  1.0000
  Ti  Ti4290    1.0  0.62195  0.04603  0.67464  1.0000
  Ti  Ti4291    1.0  0.86585  0.10476  0.67260  1.0000
  Ti  Ti4292    1.0  0.60976  0.27143  0.67260  1.0000
  Ti  Ti4293    1.0  0.85366  0.33016  0.67056  1.0000
  Ti  Ti4294    1.0  0.59756  0.16349  0.67056  1.0000
  Ti  Ti4295    1.0  0.84146  0.22222  0.66852  1.0000
  Ti  Ti4296    1.0  0.58537  0.05556  0.66852  1.0000
  Ti  Ti4297    1.0  0.82927  0.11429  0.66647  1.0000
  Ti  Ti4298    1.0  0.57317  0.28095  0.66647  1.0000
  Ti  Ti4299    1.0  0.81707  0.00635  0.66443  1.0000
  Ti  Ti4300    1.0  0.56098  0.17302  0.66443  1.0000
  Ti  Ti4301    1.0  0.80488  0.23175  0.66239  1.0000
  Ti  Ti4302    1.0  0.54878  0.06508  0.66239  1.0000
  Ti  Ti4303    1.0  0.79268  0.12381  0.66035  1.0000
  Ti  Ti4304    1.0  0.53659  0.29048  0.66035  1.0000
  Ti  Ti4305    1.0  0.78049  0.01587  0.65830  1.0000
  Ti  Ti4306    1.0  0.52439  0.18254  0.65830  1.0000
  Ti  Ti4307    1.0  0.76829  0.24127  0.65626  1.0000
  Ti  Ti4308    1.0  0.51220  0.07460  0.65626  1.0000
  Ti  Ti4309    1.0  0.75610  0.13333  0.65422  1.0000
  Ti  Ti4310    1.0  0.50000  0.30000  0.65422  1.0000
  Ti  Ti4311    1.0  0.74390  0.02540  0.65218  1.0000
  Ti  Ti4312    1.0  1.00000  0.19206  0.65218  1.0000
  Ti  Ti4313    1.0  0.73171  0.25079  0.65013  1.0000
  Ti  Ti4314    1.0  0.98780  0.08413  0.65013  1.0000
  Ti  Ti4315    1.0  0.71951  0.14286  0.64809  1.0000
  Ti  Ti4316    1.0  0.97561  0.30952  0.64809  1.0000
  Ti  Ti4317    1.0  0.70732  0.03492  0.64605  1.0000
  Ti  Ti4318    1.0  0.96341  0.20159  0.64605  1.0000
  Ti  Ti4319    1.0  0.69512  0.26032  0.64400  1.0000
  Ti  Ti4320    1.0  0.95122  0.09365  0.64400  1.0000
  Ti  Ti4321    1.0  0.68293  0.15238  0.64196  1.0000
  Ti  Ti4322    1.0  0.93902  0.31905  0.64196  1.0000
  Ti  Ti4323    1.0  0.67073  0.04444  0.63992  1.0000
  Ti  Ti4324    1.0  0.92683  0.21111  0.63992  1.0000
  Ti  Ti4325    1.0  0.65854  0.26984  0.63788  1.0000
  Ti  Ti4326    1.0  0.91463  0.10317  0.63788  1.0000
  Ti  Ti4327    1.0  0.64634  0.16190  0.63583  1.0000
  Ti  Ti4328    1.0  0.90244  0.32857  0.63583  1.0000
  Ti  Ti4329    1.0  0.63415  0.05397  0.63379  1.0000
  Ti  Ti4330    1.0  0.89024  0.22063  0.63379  1.0000
  Ti  Ti4331    1.0  0.62195  0.27937  0.63175  1.0000
  Ti  Ti4332    1.0  0.87805  0.11270  0.63175  1.0000
  Ti  Ti4333    1.0  0.60976  0.17143  0.62971  1.0000
  Ti  Ti4334    1.0  0.86585  0.00476  0.62971  1.0000
  Ti  Ti4335    1.0  0.59756  0.06349  0.62766  1.0000
  Ti  Ti4336    1.0  0.85366  0.23016  0.62766  1.0000
  Ti  Ti4337    1.0  0.58537  0.28889  0.62562  1.0000
  Ti  Ti4338    1.0  0.84146  0.12222  0.62562  1.0000
  Ti  Ti4339    1.0  0.57317  0.18095  0.62358  1.0000
  Ti  Ti4340    1.0  0.82927  0.01429  0.62358  1.0000
  Ti  Ti4341    1.0  0.56098  0.07302  0.62154  1.0000
  Ti  Ti4342    1.0  0.81707  0.23968  0.62154  1.0000
  Ti  Ti4343    1.0  0.54878  0.29841  0.61949  1.0000
  Ti  Ti4344    1.0  0.80488  0.13175  0.61949  1.0000
  Ti  Ti4345    1.0  0.53659  0.19048  0.61745  1.0000
  Ti  Ti4346    1.0  0.79268  0.02381  0.61745  1.0000
  Ti  Ti4347    1.0  0.52439  0.08254  0.61541  1.0000
  Ti  Ti4348    1.0  0.78049  0.24921  0.61541  1.0000
  Ti  Ti4349    1.0  0.51220  0.30794  0.61337  1.0000
  Ti  Ti4350    1.0  0.76829  0.14127  0.61337  1.0000
  Ti  Ti4351    1.0  0.50000  0.20000  0.61132  1.0000
  Ti  Ti4352    1.0  0.75610  0.03333  0.61132  1.0000
  Ti  Ti4353    1.0  0.00000  0.09206  0.60928  1.0000
  Ti  Ti4354    1.0  0.74390  0.25873  0.60928  1.0000
  Ti  Ti4355    1.0  0.98780  0.31746  0.60724  1.0000
  Ti  Ti4356    1.0  0.73171  0.15079  0.60724  1.0000
  Ti  Ti4357    1.0  0.97561  0.20952  0.60520  1.0000
  Ti  Ti4358    1.0  0.71951  0.04286  0.60520  1.0000
  Ti  Ti4359    1.0  0.96341  0.10159  0.60315  1.0000
  Ti  Ti4360    1.0  0.70732  0.26825  0.60315  1.0000
  Ti  Ti4361    1.0  0.95122  0.32698  0.60111  1.0000
  Ti  Ti4362    1.0  0.69512  0.16032  0.60111  1.0000
  Ti  Ti4363    1.0  0.93902  0.21905  0.59907  1.0000
  Ti  Ti4364    1.0  0.68293  0.05238  0.59907  1.0000
  Ti  Ti4365    1.0  0.92683  0.11111  0.59702  1.0000
  Ti  Ti4366    1.0  0.67073  0.27778  0.59702  1.0000
  Ti  Ti4367    1.0  0.91463  0.00317  0.59498  1.0000
  Ti  Ti4368    1.0  0.65854  0.16984  0.59498  1.0000
  Ti  Ti4369    1.0  0.90244  0.22857  0.59294  1.0000
  Ti  Ti4370    1.0  0.64634  0.06190  0.59294  1.0000
  Ti  Ti4371    1.0  0.89024  0.12063  0.59090  1.0000
  Ti  Ti4372    1.0  0.63415  0.28730  0.59090  1.0000
  Ti  Ti4373    1.0  0.87805  0.01270  0.58885  1.0000
  Ti  Ti4374    1.0  0.62195  0.17937  0.58885  1.0000
  Ti  Ti4375    1.0  0.86585  0.23810  0.58681  1.0000
  Ti  Ti4376    1.0  0.60976  0.07143  0.58681  1.0000
  Ti  Ti4377    1.0  0.85366  0.13016  0.58477  1.0000
  Ti  Ti4378    1.0  0.59756  0.29683  0.58477  1.0000
  Ti  Ti4379    1.0  0.84146  0.02222  0.58273  1.0000
  Ti  Ti4380    1.0  0.58537  0.18889  0.58273  1.0000
  Ti  Ti4381    1.0  0.82927  0.24762  0.58068  1.0000
  Ti  Ti4382    1.0  0.57317  0.08095  0.58068  1.0000
  Ti  Ti4383    1.0  0.81707  0.13968  0.57864  1.0000
  Ti  Ti4384    1.0  0.56098  0.30635  0.57864  1.0000
  Ti  Ti4385    1.0  0.80488  0.03175  0.57660  1.0000
  Ti  Ti4386    1.0  0.54878  0.19841  0.57660  1.0000
  Ti  Ti4387    1.0  0.79268  0.25714  0.57456  1.0000
  Ti  Ti4388    1.0  0.53659  0.09048  0.57456  1.0000
  Ti  Ti4389    1.0  0.78049  0.14921  0.57251  1.0000
  Ti  Ti4390    1.0  0.52439  0.31587  0.57251  1.0000
  Ti  Ti4391    1.0  0.76829  0.04127  0.57047  1.0000
  Ti  Ti4392    1.0  0.51220  0.20794  0.57047  1.0000
  Ti  Ti4393    1.0  0.75610  0.26667  0.56843  1.0000
  Ti  Ti4394    1.0  0.50000  0.10000  0.56843  1.0000
  Ti  Ti4395    1.0  0.74390  0.15873  0.56639  1.0000
  Ti  Ti4396    1.0  1.00000  0.32540  0.56639  1.0000
  Ti  Ti4397    1.0  0.73171  0.05079  0.56434  1.0000
  Ti  Ti4398    1.0  0.98780  0.21746  0.56434  1.0000
  Ti  Ti4399    1.0  0.71951  0.27619  0.56230  1.0000
  Ti  Ti4400    1.0  0.97561  0.10952  0.56230  1.0000
  Ti  Ti4401    1.0  0.70732  0.16825  0.56026  1.0000
  Ti  Ti4402    1.0  0.96341  0.00159  0.56026  1.0000
  Ti  Ti4403    1.0  0.69512  0.06032  0.55821  1.0000
  Ti  Ti4404    1.0  0.95122  0.22698  0.55821  1.0000
  Ti  Ti4405    1.0  0.68293  0.28571  0.55617  1.0000
  Ti  Ti4406    1.0  0.93902  0.11905  0.55617  1.0000
  Ti  Ti4407    1.0  0.67073  0.17778  0.55413  1.0000
  Ti  Ti4408    1.0  0.92683  0.01111  0.55413  1.0000
  Ti  Ti4409    1.0  0.65854  0.06984  0.55209  1.0000
  Ti  Ti4410    1.0  0.91463  0.23651  0.55209  1.0000
  Ti  Ti4411    1.0  0.64634  0.29524  0.55004  1.0000
  Ti  Ti4412    1.0  0.90244  0.12857  0.55004  1.0000
  Ti  Ti4413    1.0  0.63415  0.18730  0.54800  1.0000
  Ti  Ti4414    1.0  0.89024  0.02063  0.54800  1.0000
  Ti  Ti4415    1.0  0.62195  0.07937  0.54596  1.0000
  Ti  Ti4416    1.0  0.87805  0.24603  0.54596  1.0000
  Ti  Ti4417    1.0  0.60976  0.30476  0.54392  1.0000
  Ti  Ti4418    1.0  0.86585  0.13810  0.54392  1.0000
  Ti  Ti4419    1.0  0.59756  0.19683  0.54187  1.0000
  Ti  Ti4420    1.0  0.85366  0.03016  0.54187  1.0000
  Ti  Ti4421    1.0  0.58537  0.08889  0.53983  1.0000
  Ti  Ti4422    1.0  0.84146  0.25556  0.53983  1.0000
  Ti  Ti4423    1.0  0.57317  0.31429  0.53779  1.0000
  Ti  Ti4424    1.0  0.82927  0.14762  0.53779  1.0000
  Ti  Ti4425    1.0  0.56098  0.20635  0.53575  1.0000
  Ti  Ti4426    1.0  0.81707  0.03968  0.53575  1.0000
  Ti  Ti4427    1.0  0.54878  0.09841  0.53370  1.0000
  Ti  Ti4428    1.0  0.80488  0.26508  0.53370  1.0000
  Ti  Ti4429    1.0  0.53659  0.32381  0.53166  1.0000
  Ti  Ti4430    1.0  0.79268  0.15714  0.53166  1.0000
  Ti  Ti4431    1.0  0.52439  0.21587  0.52962  1.0000
  Ti  Ti4432    1.0  0.78049  0.04921  0.52962  1.0000
  Ti  Ti4433    1.0  0.51220  0.10794  0.52758  1.0000
  Ti  Ti4434    1.0  0.76829  0.27460  0.52758  1.0000
  Ti  Ti4435    1.0  0.50000  0.33333  0.52553  1.0000
  Ti  Ti4436    1.0  0.75610  0.16667  0.52553  1.0000
  Ti  Ti4437    1.0  1.00000  0.22540  0.52349  1.0000
  Ti  Ti4438    1.0  0.74390  0.05873  0.52349  1.0000
  Ti  Ti4439    1.0  0.98780  0.11746  0.52145  1.0000
  Ti  Ti4440    1.0  0.73171  0.28413  0.52145  1.0000
  Ti  Ti4441    1.0  0.97561  0.00952  0.51940  1.0000
  Ti  Ti4442    1.0  0.71951  0.17619  0.51940  1.0000
  Ti  Ti4443    1.0  0.96341  0.23492  0.51736  1.0000
  Ti  Ti4444    1.0  0.70732  0.06825  0.51736  1.0000
  Ti  Ti4445    1.0  0.95122  0.12698  0.51532  1.0000
  Ti  Ti4446    1.0  0.69512  0.29365  0.51532  1.0000
  Ti  Ti4447    1.0  0.93902  0.01905  0.51328  1.0000
  Ti  Ti4448    1.0  0.68293  0.18571  0.51328  1.0000
  Ti  Ti4449    1.0  0.92683  0.24444  0.51123  1.0000
  Ti  Ti4450    1.0  0.67073  0.07778  0.51123  1.0000
  Ti  Ti4451    1.0  0.91463  0.13651  0.50919  1.0000
  Ti  Ti4452    1.0  0.65854  0.30317  0.50919  1.0000
  Ti  Ti4453    1.0  0.90244  0.02857  0.50715  1.0000
  Ti  Ti4454    1.0  0.64634  0.19524  0.50715  1.0000
  Ti  Ti4455    1.0  0.89024  0.25397  0.50511  1.0000
  Ti  Ti4456    1.0  0.63415  0.08730  0.50511  1.0000
  Ti  Ti4457    1.0  0.87805  0.14603  0.50306  1.0000
  Ti  Ti4458    1.0  0.62195  0.31270  0.50306  1.0000
  Ti  Ti4459    1.0  0.86585  0.03810  0.50102  1.0000
  Ti  Ti4460    1.0  0.60976  0.20476  0.50102  1.0000
  Ti  Ti4461    1.0  0.50000  0.33333  0.95448  1.0000
  Ti  Ti4462    1.0  0.75610  0.50000  0.95448  1.0000
  Ti  Ti4463    1.0  1.00000  0.55873  0.95244  1.0000
  Ti  Ti4464    1.0  0.74390  0.39206  0.95244  1.0000
  Ti  Ti4465    1.0  0.98780  0.45079  0.95040  1.0000
  Ti  Ti4466    1.0  0.73171  0.61746  0.95040  1.0000
  Ti  Ti4467    1.0  0.97561  0.34286  0.94836  1.0000
  Ti  Ti4468    1.0  0.71951  0.50952  0.94836  1.0000
  Ti  Ti4469    1.0  0.96341  0.56825  0.94631  1.0000
  Ti  Ti4470    1.0  0.70732  0.40159  0.94631  1.0000
  Ti  Ti4471    1.0  0.95122  0.46032  0.94427  1.0000
  Ti  Ti4472    1.0  0.69512  0.62698  0.94427  1.0000
  Ti  Ti4473    1.0  0.93902  0.35238  0.94223  1.0000
  Ti  Ti4474    1.0  0.68293  0.51905  0.94223  1.0000
  Ti  Ti4475    1.0  0.92683  0.57778  0.94019  1.0000
  Ti  Ti4476    1.0  0.67073  0.41111  0.94019  1.0000
  Ti  Ti4477    1.0  0.91463  0.46984  0.93814  1.0000
  Ti  Ti4478    1.0  0.65854  0.63651  0.93814  1.0000
  Ti  Ti4479    1.0  0.90244  0.36190  0.93610  1.0000
  Ti  Ti4480    1.0  0.64634  0.52857  0.93610  1.0000
  Ti  Ti4481    1.0  0.89024  0.58730  0.93406  1.0000
  Ti  Ti4482    1.0  0.63415  0.42063  0.93406  1.0000
  Ti  Ti4483    1.0  0.87805  0.47937  0.93201  1.0000
  Ti  Ti4484    1.0  0.62195  0.64603  0.93201  1.0000
  Ti  Ti4485    1.0  0.86585  0.37143  0.92997  1.0000
  Ti  Ti4486    1.0  0.60976  0.53810  0.92997  1.0000
  Ti  Ti4487    1.0  0.85366  0.59683  0.92793  1.0000
  Ti  Ti4488    1.0  0.59756  0.43016  0.92793  1.0000
  Ti  Ti4489    1.0  0.84146  0.48889  0.92589  1.0000
  Ti  Ti4490    1.0  0.58537  0.65556  0.92589  1.0000
  Ti  Ti4491    1.0  0.82927  0.38095  0.92384  1.0000
  Ti  Ti4492    1.0  0.57317  0.54762  0.92384  1.0000
  Ti  Ti4493    1.0  0.81707  0.60635  0.92180  1.0000
  Ti  Ti4494    1.0  0.56098  0.43968  0.92180  1.0000
  Ti  Ti4495    1.0  0.80488  0.49841  0.91976  1.0000
  Ti  Ti4496    1.0  0.54878  0.66508  0.91976  1.0000
  Ti  Ti4497    1.0  0.79268  0.39048  0.91772  1.0000
  Ti  Ti4498    1.0  0.53659  0.55714  0.91772  1.0000
  Ti  Ti4499    1.0  0.78049  0.61587  0.91567  1.0000
  Ti  Ti4500    1.0  0.52439  0.44921  0.91567  1.0000
  Ti  Ti4501    1.0  0.76829  0.50794  0.91363  1.0000
  Ti  Ti4502    1.0  0.51220  0.34127  0.91363  1.0000
  Ti  Ti4503    1.0  0.75610  0.40000  0.91159  1.0000
  Ti  Ti4504    1.0  0.50000  0.56667  0.91159  1.0000
  Ti  Ti4505    1.0  0.74390  0.62540  0.90955  1.0000
  Ti  Ti4506    1.0  1.00000  0.45873  0.90955  1.0000
  Ti  Ti4507    1.0  0.73171  0.51746  0.90750  1.0000
  Ti  Ti4508    1.0  0.98780  0.35079  0.90750  1.0000
  Ti  Ti4509    1.0  0.71951  0.40952  0.90546  1.0000
  Ti  Ti4510    1.0  0.97561  0.57619  0.90546  1.0000
  Ti  Ti4511    1.0  0.70732  0.63492  0.90342  1.0000
  Ti  Ti4512    1.0  0.96341  0.46825  0.90342  1.0000
  Ti  Ti4513    1.0  0.69512  0.52698  0.90138  1.0000
  Ti  Ti4514    1.0  0.95122  0.36032  0.90138  1.0000
  Ti  Ti4515    1.0  0.68293  0.41905  0.89933  1.0000
  Ti  Ti4516    1.0  0.93902  0.58571  0.89933  1.0000
  Ti  Ti4517    1.0  0.67073  0.64444  0.89729  1.0000
  Ti  Ti4518    1.0  0.92683  0.47778  0.89729  1.0000
  Ti  Ti4519    1.0  0.65854  0.53651  0.89525  1.0000
  Ti  Ti4520    1.0  0.91463  0.36984  0.89525  1.0000
  Ti  Ti4521    1.0  0.64634  0.42857  0.89321  1.0000
  Ti  Ti4522    1.0  0.90244  0.59524  0.89321  1.0000
  Ti  Ti4523    1.0  0.63415  0.65397  0.89116  1.0000
  Ti  Ti4524    1.0  0.89024  0.48730  0.89116  1.0000
  Ti  Ti4525    1.0  0.62195  0.54603  0.88912  1.0000
  Ti  Ti4526    1.0  0.87805  0.37937  0.88912  1.0000
  Ti  Ti4527    1.0  0.60976  0.43810  0.88708  1.0000
  Ti  Ti4528    1.0  0.86585  0.60476  0.88708  1.0000
  Ti  Ti4529    1.0  0.59756  0.66349  0.88503  1.0000
  Ti  Ti4530    1.0  0.85366  0.49683  0.88503  1.0000
  Ti  Ti4531    1.0  0.58537  0.55556  0.88299  1.0000
  Ti  Ti4532    1.0  0.84146  0.38889  0.88299  1.0000
  Ti  Ti4533    1.0  0.57317  0.44762  0.88095  1.0000
  Ti  Ti4534    1.0  0.82927  0.61429  0.88095  1.0000
  Ti  Ti4535    1.0  0.56098  0.33968  0.87891  1.0000
  Ti  Ti4536    1.0  0.81707  0.50635  0.87891  1.0000
  Ti  Ti4537    1.0  0.54878  0.56508  0.87686  1.0000
  Ti  Ti4538    1.0  0.80488  0.39841  0.87686  1.0000
  Ti  Ti4539    1.0  0.53659  0.45714  0.87482  1.0000
  Ti  Ti4540    1.0  0.79268  0.62381  0.87482  1.0000
  Ti  Ti4541    1.0  0.52439  0.34921  0.87278  1.0000
  Ti  Ti4542    1.0  0.78049  0.51587  0.87278  1.0000
  Ti  Ti4543    1.0  0.51220  0.57460  0.87074  1.0000
  Ti  Ti4544    1.0  0.76829  0.40794  0.87074  1.0000
  Ti  Ti4545    1.0  0.50000  0.46667  0.86869  1.0000
  Ti  Ti4546    1.0  0.75610  0.63333  0.86869  1.0000
  Ti  Ti4547    1.0  1.00000  0.35873  0.86665  1.0000
  Ti  Ti4548    1.0  0.74390  0.52540  0.86665  1.0000
  Ti  Ti4549    1.0  0.98780  0.58413  0.86461  1.0000
  Ti  Ti4550    1.0  0.73171  0.41746  0.86461  1.0000
  Ti  Ti4551    1.0  0.97561  0.47619  0.86257  1.0000
  Ti  Ti4552    1.0  0.71951  0.64286  0.86257  1.0000
  Ti  Ti4553    1.0  0.96341  0.36825  0.86052  1.0000
  Ti  Ti4554    1.0  0.70732  0.53492  0.86052  1.0000
  Ti  Ti4555    1.0  0.95122  0.59365  0.85848  1.0000
  Ti  Ti4556    1.0  0.69512  0.42698  0.85848  1.0000
  Ti  Ti4557    1.0  0.93902  0.48571  0.85644  1.0000
  Ti  Ti4558    1.0  0.68293  0.65238  0.85644  1.0000
  Ti  Ti4559    1.0  0.92683  0.37778  0.85440  1.0000
  Ti  Ti4560    1.0  0.67073  0.54444  0.85440  1.0000
  Ti  Ti4561    1.0  0.91463  0.60317  0.85235  1.0000
  Ti  Ti4562    1.0  0.65854  0.43651  0.85235  1.0000
  Ti  Ti4563    1.0  0.90244  0.49524  0.85031  1.0000
  Ti  Ti4564    1.0  0.64634  0.66190  0.85031  1.0000
  Ti  Ti4565    1.0  0.89024  0.38730  0.84827  1.0000
  Ti  Ti4566    1.0  0.63415  0.55397  0.84827  1.0000
  Ti  Ti4567    1.0  0.87805  0.61270  0.84622  1.0000
  Ti  Ti4568    1.0  0.62195  0.44603  0.84622  1.0000
  Ti  Ti4569    1.0  0.86585  0.50476  0.84418  1.0000
  Ti  Ti4570    1.0  0.60976  0.33810  0.84418  1.0000
  Ti  Ti4571    1.0  0.85366  0.39683  0.84214  1.0000
  Ti  Ti4572    1.0  0.59756  0.56349  0.84214  1.0000
  Ti  Ti4573    1.0  0.84146  0.62222  0.84010  1.0000
  Ti  Ti4574    1.0  0.58537  0.45556  0.84010  1.0000
  Ti  Ti4575    1.0  0.82927  0.51429  0.83805  1.0000
  Ti  Ti4576    1.0  0.57317  0.34762  0.83805  1.0000
  Ti  Ti4577    1.0  0.81707  0.40635  0.83601  1.0000
  Ti  Ti4578    1.0  0.56098  0.57302  0.83601  1.0000
  Ti  Ti4579    1.0  0.80488  0.63175  0.83397  1.0000
  Ti  Ti4580    1.0  0.54878  0.46508  0.83397  1.0000
  Ti  Ti4581    1.0  0.79268  0.52381  0.83193  1.0000
  Ti  Ti4582    1.0  0.53659  0.35714  0.83193  1.0000
  Ti  Ti4583    1.0  0.78049  0.41587  0.82988  1.0000
  Ti  Ti4584    1.0  0.52439  0.58254  0.82988  1.0000
  Ti  Ti4585    1.0  0.76829  0.64127  0.82784  1.0000
  Ti  Ti4586    1.0  0.51220  0.47460  0.82784  1.0000
  Ti  Ti4587    1.0  0.75610  0.53333  0.82580  1.0000
  Ti  Ti4588    1.0  0.50000  0.36667  0.82580  1.0000
  Ti  Ti4589    1.0  0.74390  0.42540  0.82376  1.0000
  Ti  Ti4590    1.0  1.00000  0.59206  0.82376  1.0000
  Ti  Ti4591    1.0  0.73171  0.65079  0.82171  1.0000
  Ti  Ti4592    1.0  0.98780  0.48413  0.82171  1.0000
  Ti  Ti4593    1.0  0.71951  0.54286  0.81967  1.0000
  Ti  Ti4594    1.0  0.97561  0.37619  0.81967  1.0000
  Ti  Ti4595    1.0  0.70732  0.43492  0.81763  1.0000
  Ti  Ti4596    1.0  0.96341  0.60159  0.81763  1.0000
  Ti  Ti4597    1.0  0.69512  0.66032  0.81559  1.0000
  Ti  Ti4598    1.0  0.95122  0.49365  0.81559  1.0000
  Ti  Ti4599    1.0  0.68293  0.55238  0.81354  1.0000
  Ti  Ti4600    1.0  0.93902  0.38571  0.81354  1.0000
  Ti  Ti4601    1.0  0.67073  0.44444  0.81150  1.0000
  Ti  Ti4602    1.0  0.92683  0.61111  0.81150  1.0000
  Ti  Ti4603    1.0  0.65854  0.33651  0.80946  1.0000
  Ti  Ti4604    1.0  0.91463  0.50317  0.80946  1.0000
  Ti  Ti4605    1.0  0.64634  0.56190  0.80741  1.0000
  Ti  Ti4606    1.0  0.90244  0.39524  0.80741  1.0000
  Ti  Ti4607    1.0  0.63415  0.45397  0.80537  1.0000
  Ti  Ti4608    1.0  0.89024  0.62063  0.80537  1.0000
  Ti  Ti4609    1.0  0.62195  0.34603  0.80333  1.0000
  Ti  Ti4610    1.0  0.87805  0.51270  0.80333  1.0000
  Ti  Ti4611    1.0  0.60976  0.57143  0.80129  1.0000
  Ti  Ti4612    1.0  0.86585  0.40476  0.80129  1.0000
  Ti  Ti4613    1.0  0.59756  0.46349  0.79924  1.0000
  Ti  Ti4614    1.0  0.85366  0.63016  0.79924  1.0000
  Ti  Ti4615    1.0  0.58537  0.35556  0.79720  1.0000
  Ti  Ti4616    1.0  0.84146  0.52222  0.79720  1.0000
  Ti  Ti4617    1.0  0.57317  0.58095  0.79516  1.0000
  Ti  Ti4618    1.0  0.82927  0.41429  0.79516  1.0000
  Ti  Ti4619    1.0  0.56098  0.47302  0.79312  1.0000
  Ti  Ti4620    1.0  0.81707  0.63968  0.79312  1.0000
  Ti  Ti4621    1.0  0.54878  0.36508  0.79107  1.0000
  Ti  Ti4622    1.0  0.80488  0.53175  0.79107  1.0000
  Ti  Ti4623    1.0  0.53659  0.59048  0.78903  1.0000
  Ti  Ti4624    1.0  0.79268  0.42381  0.78903  1.0000
  Ti  Ti4625    1.0  0.52439  0.48254  0.78699  1.0000
  Ti  Ti4626    1.0  0.78049  0.64921  0.78699  1.0000
  Ti  Ti4627    1.0  0.51220  0.37460  0.78495  1.0000
  Ti  Ti4628    1.0  0.76829  0.54127  0.78495  1.0000
  Ti  Ti4629    1.0  0.50000  0.60000  0.78290  1.0000
  Ti  Ti4630    1.0  0.75610  0.43333  0.78290  1.0000
  Ti  Ti4631    1.0  1.00000  0.49206  0.78086  1.0000
  Ti  Ti4632    1.0  0.74390  0.65873  0.78086  1.0000
  Ti  Ti4633    1.0  0.98780  0.38413  0.77882  1.0000
  Ti  Ti4634    1.0  0.73171  0.55079  0.77882  1.0000
  Ti  Ti4635    1.0  0.97561  0.60952  0.77678  1.0000
  Ti  Ti4636    1.0  0.71951  0.44286  0.77678  1.0000
  Ti  Ti4637    1.0  0.96341  0.50159  0.77473  1.0000
  Ti  Ti4638    1.0  0.70732  0.33492  0.77473  1.0000
  Ti  Ti4639    1.0  0.95122  0.39365  0.77269  1.0000
  Ti  Ti4640    1.0  0.69512  0.56032  0.77269  1.0000
  Ti  Ti4641    1.0  0.93902  0.61905  0.77065  1.0000
  Ti  Ti4642    1.0  0.68293  0.45238  0.77065  1.0000
  Ti  Ti4643    1.0  0.92683  0.51111  0.76861  1.0000
  Ti  Ti4644    1.0  0.67073  0.34444  0.76861  1.0000
  Ti  Ti4645    1.0  0.91463  0.40317  0.76656  1.0000
  Ti  Ti4646    1.0  0.65854  0.56984  0.76656  1.0000
  Ti  Ti4647    1.0  0.90244  0.62857  0.76452  1.0000
  Ti  Ti4648    1.0  0.64634  0.46190  0.76452  1.0000
  Ti  Ti4649    1.0  0.89024  0.52063  0.76248  1.0000
  Ti  Ti4650    1.0  0.63415  0.35397  0.76248  1.0000
  Ti  Ti4651    1.0  0.87805  0.41270  0.76043  1.0000
  Ti  Ti4652    1.0  0.62195  0.57937  0.76043  1.0000
  Ti  Ti4653    1.0  0.86585  0.63810  0.75839  1.0000
  Ti  Ti4654    1.0  0.60976  0.47143  0.75839  1.0000
  Ti  Ti4655    1.0  0.85366  0.53016  0.75635  1.0000
  Ti  Ti4656    1.0  0.59756  0.36349  0.75635  1.0000
  Ti  Ti4657    1.0  0.84146  0.42222  0.75431  1.0000
  Ti  Ti4658    1.0  0.58537  0.58889  0.75431  1.0000
  Ti  Ti4659    1.0  0.82927  0.64762  0.75226  1.0000
  Ti  Ti4660    1.0  0.57317  0.48095  0.75226  1.0000
  Ti  Ti4661    1.0  0.81707  0.53968  0.75022  1.0000
  Ti  Ti4662    1.0  0.56098  0.37302  0.75022  1.0000
  Ti  Ti4663    1.0  0.80488  0.43175  0.74818  1.0000
  Ti  Ti4664    1.0  0.54878  0.59841  0.74818  1.0000
  Ti  Ti4665    1.0  0.79268  0.65714  0.74614  1.0000
  Ti  Ti4666    1.0  0.53659  0.49048  0.74614  1.0000
  Ti  Ti4667    1.0  0.78049  0.54921  0.74409  1.0000
  Ti  Ti4668    1.0  0.52439  0.38254  0.74409  1.0000
  Ti  Ti4669    1.0  0.76829  0.44127  0.74205  1.0000
  Ti  Ti4670    1.0  0.51220  0.60794  0.74205  1.0000
  Ti  Ti4671    1.0  0.75610  0.66667  0.74001  1.0000
  Ti  Ti4672    1.0  0.50000  0.50000  0.74001  1.0000
  Ti  Ti4673    1.0  0.74390  0.55873  0.73797  1.0000
  Ti  Ti4674    1.0  1.00000  0.39206  0.73797  1.0000
  Ti  Ti4675    1.0  0.73171  0.45079  0.73592  1.0000
  Ti  Ti4676    1.0  0.98780  0.61746  0.73592  1.0000
  Ti  Ti4677    1.0  0.71951  0.34286  0.73388  1.0000
  Ti  Ti4678    1.0  0.97561  0.50952  0.73388  1.0000
  Ti  Ti4679    1.0  0.70732  0.56825  0.73184  1.0000
  Ti  Ti4680    1.0  0.96341  0.40159  0.73184  1.0000
  Ti  Ti4681    1.0  0.69512  0.46032  0.72980  1.0000
  Ti  Ti4682    1.0  0.95122  0.62698  0.72980  1.0000
  Ti  Ti4683    1.0  0.68293  0.35238  0.72775  1.0000
  Ti  Ti4684    1.0  0.93902  0.51905  0.72775  1.0000
  Ti  Ti4685    1.0  0.67073  0.57778  0.72571  1.0000
  Ti  Ti4686    1.0  0.92683  0.41111  0.72571  1.0000
  Ti  Ti4687    1.0  0.65854  0.46984  0.72367  1.0000
  Ti  Ti4688    1.0  0.91463  0.63651  0.72367  1.0000
  Ti  Ti4689    1.0  0.64634  0.36190  0.72162  1.0000
  Ti  Ti4690    1.0  0.90244  0.52857  0.72162  1.0000
  Ti  Ti4691    1.0  0.63415  0.58730  0.71958  1.0000
  Ti  Ti4692    1.0  0.89024  0.42063  0.71958  1.0000
  Ti  Ti4693    1.0  0.62195  0.47937  0.71754  1.0000
  Ti  Ti4694    1.0  0.87805  0.64603  0.71754  1.0000
  Ti  Ti4695    1.0  0.60976  0.37143  0.71550  1.0000
  Ti  Ti4696    1.0  0.86585  0.53810  0.71550  1.0000
  Ti  Ti4697    1.0  0.59756  0.59683  0.71345  1.0000
  Ti  Ti4698    1.0  0.85366  0.43016  0.71345  1.0000
  Ti  Ti4699    1.0  0.58537  0.48889  0.71141  1.0000
  Ti  Ti4700    1.0  0.84146  0.65556  0.71141  1.0000
  Ti  Ti4701    1.0  0.57317  0.38095  0.70937  1.0000
  Ti  Ti4702    1.0  0.82927  0.54762  0.70937  1.0000
  Ti  Ti4703    1.0  0.56098  0.60635  0.70733  1.0000
  Ti  Ti4704    1.0  0.81707  0.43968  0.70733  1.0000
  Ti  Ti4705    1.0  0.54878  0.49841  0.70528  1.0000
  Ti  Ti4706    1.0  0.80488  0.66508  0.70528  1.0000
  Ti  Ti4707    1.0  0.53659  0.39048  0.70324  1.0000
  Ti  Ti4708    1.0  0.79268  0.55714  0.70324  1.0000
  Ti  Ti4709    1.0  0.52439  0.61587  0.70120  1.0000
  Ti  Ti4710    1.0  0.78049  0.44921  0.70120  1.0000
  Ti  Ti4711    1.0  0.51220  0.50794  0.69916  1.0000
  Ti  Ti4712    1.0  0.76829  0.34127  0.69916  1.0000
  Ti  Ti4713    1.0  0.50000  0.40000  0.69711  1.0000
  Ti  Ti4714    1.0  0.75610  0.56667  0.69711  1.0000
  Ti  Ti4715    1.0  1.00000  0.62540  0.69507  1.0000
  Ti  Ti4716    1.0  0.74390  0.45873  0.69507  1.0000
  Ti  Ti4717    1.0  0.98780  0.51746  0.69303  1.0000
  Ti  Ti4718    1.0  0.73171  0.35079  0.69303  1.0000
  Ti  Ti4719    1.0  0.97561  0.40952  0.69099  1.0000
  Ti  Ti4720    1.0  0.71951  0.57619  0.69099  1.0000
  Ti  Ti4721    1.0  0.96341  0.63492  0.68894  1.0000
  Ti  Ti4722    1.0  0.70732  0.46825  0.68894  1.0000
  Ti  Ti4723    1.0  0.95122  0.52698  0.68690  1.0000
  Ti  Ti4724    1.0  0.69512  0.36032  0.68690  1.0000
  Ti  Ti4725    1.0  0.93902  0.41905  0.68486  1.0000
  Ti  Ti4726    1.0  0.68293  0.58571  0.68486  1.0000
  Ti  Ti4727    1.0  0.92683  0.64444  0.68281  1.0000
  Ti  Ti4728    1.0  0.67073  0.47778  0.68281  1.0000
  Ti  Ti4729    1.0  0.91463  0.53651  0.68077  1.0000
  Ti  Ti4730    1.0  0.65854  0.36984  0.68077  1.0000
  Ti  Ti4731    1.0  0.90244  0.42857  0.67873  1.0000
  Ti  Ti4732    1.0  0.64634  0.59524  0.67873  1.0000
  Ti  Ti4733    1.0  0.89024  0.65397  0.67669  1.0000
  Ti  Ti4734    1.0  0.63415  0.48730  0.67669  1.0000
  Ti  Ti4735    1.0  0.87805  0.54603  0.67464  1.0000
  Ti  Ti4736    1.0  0.62195  0.37937  0.67464  1.0000
  Ti  Ti4737    1.0  0.86585  0.43810  0.67260  1.0000
  Ti  Ti4738    1.0  0.60976  0.60476  0.67260  1.0000
  Ti  Ti4739    1.0  0.85366  0.66349  0.67056  1.0000
  Ti  Ti4740    1.0  0.59756  0.49683  0.67056  1.0000
  Ti  Ti4741    1.0  0.84146  0.55556  0.66852  1.0000
  Ti  Ti4742    1.0  0.58537  0.38889  0.66852  1.0000
  Ti  Ti4743    1.0  0.82927  0.44762  0.66647  1.0000
  Ti  Ti4744    1.0  0.57317  0.61429  0.66647  1.0000
  Ti  Ti4745    1.0  0.81707  0.33968  0.66443  1.0000
  Ti  Ti4746    1.0  0.56098  0.50635  0.66443  1.0000
  Ti  Ti4747    1.0  0.80488  0.56508  0.66239  1.0000
  Ti  Ti4748    1.0  0.54878  0.39841  0.66239  1.0000
  Ti  Ti4749    1.0  0.79268  0.45714  0.66035  1.0000
  Ti  Ti4750    1.0  0.53659  0.62381  0.66035  1.0000
  Ti  Ti4751    1.0  0.78049  0.34921  0.65830  1.0000
  Ti  Ti4752    1.0  0.52439  0.51587  0.65830  1.0000
  Ti  Ti4753    1.0  0.76829  0.57460  0.65626  1.0000
  Ti  Ti4754    1.0  0.51220  0.40794  0.65626  1.0000
  Ti  Ti4755    1.0  0.75610  0.46667  0.65422  1.0000
  Ti  Ti4756    1.0  0.50000  0.63333  0.65422  1.0000
  Ti  Ti4757    1.0  0.74390  0.35873  0.65218  1.0000
  Ti  Ti4758    1.0  1.00000  0.52540  0.65218  1.0000
  Ti  Ti4759    1.0  0.73171  0.58413  0.65013  1.0000
  Ti  Ti4760    1.0  0.98780  0.41746  0.65013  1.0000
  Ti  Ti4761    1.0  0.71951  0.47619  0.64809  1.0000
  Ti  Ti4762    1.0  0.97561  0.64286  0.64809  1.0000
  Ti  Ti4763    1.0  0.70732  0.36825  0.64605  1.0000
  Ti  Ti4764    1.0  0.96341  0.53492  0.64605  1.0000
  Ti  Ti4765    1.0  0.69512  0.59365  0.64400  1.0000
  Ti  Ti4766    1.0  0.95122  0.42698  0.64400  1.0000
  Ti  Ti4767    1.0  0.68293  0.48571  0.64196  1.0000
  Ti  Ti4768    1.0  0.93902  0.65238  0.64196  1.0000
  Ti  Ti4769    1.0  0.67073  0.37778  0.63992  1.0000
  Ti  Ti4770    1.0  0.92683  0.54444  0.63992  1.0000
  Ti  Ti4771    1.0  0.65854  0.60317  0.63788  1.0000
  Ti  Ti4772    1.0  0.91463  0.43651  0.63788  1.0000
  Ti  Ti4773    1.0  0.64634  0.49524  0.63583  1.0000
  Ti  Ti4774    1.0  0.90244  0.66190  0.63583  1.0000
  Ti  Ti4775    1.0  0.63415  0.38730  0.63379  1.0000
  Ti  Ti4776    1.0  0.89024  0.55397  0.63379  1.0000
  Ti  Ti4777    1.0  0.62195  0.61270  0.63175  1.0000
  Ti  Ti4778    1.0  0.87805  0.44603  0.63175  1.0000
  Ti  Ti4779    1.0  0.60976  0.50476  0.62971  1.0000
  Ti  Ti4780    1.0  0.86585  0.33810  0.62971  1.0000
  Ti  Ti4781    1.0  0.59756  0.39683  0.62766  1.0000
  Ti  Ti4782    1.0  0.85366  0.56349  0.62766  1.0000
  Ti  Ti4783    1.0  0.58537  0.62222  0.62562  1.0000
  Ti  Ti4784    1.0  0.84146  0.45556  0.62562  1.0000
  Ti  Ti4785    1.0  0.57317  0.51429  0.62358  1.0000
  Ti  Ti4786    1.0  0.82927  0.34762  0.62358  1.0000
  Ti  Ti4787    1.0  0.56098  0.40635  0.62154  1.0000
  Ti  Ti4788    1.0  0.81707  0.57302  0.62154  1.0000
  Ti  Ti4789    1.0  0.54878  0.63175  0.61949  1.0000
  Ti  Ti4790    1.0  0.80488  0.46508  0.61949  1.0000
  Ti  Ti4791    1.0  0.53659  0.52381  0.61745  1.0000
  Ti  Ti4792    1.0  0.79268  0.35714  0.61745  1.0000
  Ti  Ti4793    1.0  0.52439  0.41587  0.61541  1.0000
  Ti  Ti4794    1.0  0.78049  0.58254  0.61541  1.0000
  Ti  Ti4795    1.0  0.51220  0.64127  0.61337  1.0000
  Ti  Ti4796    1.0  0.76829  0.47460  0.61337  1.0000
  Ti  Ti4797    1.0  0.50000  0.53333  0.61132  1.0000
  Ti  Ti4798    1.0  0.75610  0.36667  0.61132  1.0000
  Ti  Ti4799    1.0  0.00000  0.42540  0.60928  1.0000
  Ti  Ti4800    1.0  0.74390  0.59206  0.60928  1.0000
  Ti  Ti4801    1.0  0.98780  0.65079  0.60724  1.0000
  Ti  Ti4802    1.0  0.73171  0.48413  0.60724  1.0000
  Ti  Ti4803    1.0  0.97561  0.54286  0.60520  1.0000
  Ti  Ti4804    1.0  0.71951  0.37619  0.60520  1.0000
  Ti  Ti4805    1.0  0.96341  0.43492  0.60315  1.0000
  Ti  Ti4806    1.0  0.70732  0.60159  0.60315  1.0000
  Ti  Ti4807    1.0  0.95122  0.66032  0.60111  1.0000
  Ti  Ti4808    1.0  0.69512  0.49365  0.60111  1.0000
  Ti  Ti4809    1.0  0.93902  0.55238  0.59907  1.0000
  Ti  Ti4810    1.0  0.68293  0.38571  0.59907  1.0000
  Ti  Ti4811    1.0  0.92683  0.44444  0.59702  1.0000
  Ti  Ti4812    1.0  0.67073  0.61111  0.59702  1.0000
  Ti  Ti4813    1.0  0.91463  0.33651  0.59498  1.0000
  Ti  Ti4814    1.0  0.65854  0.50317  0.59498  1.0000
  Ti  Ti4815    1.0  0.90244  0.56190  0.59294  1.0000
  Ti  Ti4816    1.0  0.64634  0.39524  0.59294  1.0000
  Ti  Ti4817    1.0  0.89024  0.45397  0.59090  1.0000
  Ti  Ti4818    1.0  0.63415  0.62063  0.59090  1.0000
  Ti  Ti4819    1.0  0.87805  0.34603  0.58885  1.0000
  Ti  Ti4820    1.0  0.62195  0.51270  0.58885  1.0000
  Ti  Ti4821    1.0  0.86585  0.57143  0.58681  1.0000
  Ti  Ti4822    1.0  0.60976  0.40476  0.58681  1.0000
  Ti  Ti4823    1.0  0.85366  0.46349  0.58477  1.0000
  Ti  Ti4824    1.0  0.59756  0.63016  0.58477  1.0000
  Ti  Ti4825    1.0  0.84146  0.35556  0.58273  1.0000
  Ti  Ti4826    1.0  0.58537  0.52222  0.58273  1.0000
  Ti  Ti4827    1.0  0.82927  0.58095  0.58068  1.0000
  Ti  Ti4828    1.0  0.57317  0.41429  0.58068  1.0000
  Ti  Ti4829    1.0  0.81707  0.47302  0.57864  1.0000
  Ti  Ti4830    1.0  0.56098  0.63968  0.57864  1.0000
  Ti  Ti4831    1.0  0.80488  0.36508  0.57660  1.0000
  Ti  Ti4832    1.0  0.54878  0.53175  0.57660  1.0000
  Ti  Ti4833    1.0  0.79268  0.59048  0.57456  1.0000
  Ti  Ti4834    1.0  0.53659  0.42381  0.57456  1.0000
  Ti  Ti4835    1.0  0.78049  0.48254  0.57251  1.0000
  Ti  Ti4836    1.0  0.52439  0.64921  0.57251  1.0000
  Ti  Ti4837    1.0  0.76829  0.37460  0.57047  1.0000
  Ti  Ti4838    1.0  0.51220  0.54127  0.57047  1.0000
  Ti  Ti4839    1.0  0.75610  0.60000  0.56843  1.0000
  Ti  Ti4840    1.0  0.50000  0.43333  0.56843  1.0000
  Ti  Ti4841    1.0  0.74390  0.49206  0.56639  1.0000
  Ti  Ti4842    1.0  1.00000  0.65873  0.56639  1.0000
  Ti  Ti4843    1.0  0.73171  0.38413  0.56434  1.0000
  Ti  Ti4844    1.0  0.98780  0.55079  0.56434  1.0000
  Ti  Ti4845    1.0  0.71951  0.60952  0.56230  1.0000
  Ti  Ti4846    1.0  0.97561  0.44286  0.56230  1.0000
  Ti  Ti4847    1.0  0.70732  0.50159  0.56026  1.0000
  Ti  Ti4848    1.0  0.96341  0.33492  0.56026  1.0000
  Ti  Ti4849    1.0  0.69512  0.39365  0.55821  1.0000
  Ti  Ti4850    1.0  0.95122  0.56032  0.55821  1.0000
  Ti  Ti4851    1.0  0.68293  0.61905  0.55617  1.0000
  Ti  Ti4852    1.0  0.93902  0.45238  0.55617  1.0000
  Ti  Ti4853    1.0  0.67073  0.51111  0.55413  1.0000
  Ti  Ti4854    1.0  0.92683  0.34444  0.55413  1.0000
  Ti  Ti4855    1.0  0.65854  0.40317  0.55209  1.0000
  Ti  Ti4856    1.0  0.91463  0.56984  0.55209  1.0000
  Ti  Ti4857    1.0  0.64634  0.62857  0.55004  1.0000
  Ti  Ti4858    1.0  0.90244  0.46190  0.55004  1.0000
  Ti  Ti4859    1.0  0.63415  0.52063  0.54800  1.0000
  Ti  Ti4860    1.0  0.89024  0.35397  0.54800  1.0000
  Ti  Ti4861    1.0  0.62195  0.41270  0.54596  1.0000
  Ti  Ti4862    1.0  0.87805  0.57937  0.54596  1.0000
  Ti  Ti4863    1.0  0.60976  0.63810  0.54392  1.0000
  Ti  Ti4864    1.0  0.86585  0.47143  0.54392  1.0000
  Ti  Ti4865    1.0  0.59756  0.53016  0.54187  1.0000
  Ti  Ti4866    1.0  0.85366  0.36349  0.54187  1.0000
  Ti  Ti4867    1.0  0.58537  0.42222  0.53983  1.0000
  Ti  Ti4868    1.0  0.84146  0.58889  0.53983  1.0000
  Ti  Ti4869    1.0  0.57317  0.64762  0.53779  1.0000
  Ti  Ti4870    1.0  0.82927  0.48095  0.53779  1.0000
  Ti  Ti4871    1.0  0.56098  0.53968  0.53575  1.0000
  Ti  Ti4872    1.0  0.81707  0.37302  0.53575  1.0000
  Ti  Ti4873    1.0  0.54878  0.43175  0.53370  1.0000
  Ti  Ti4874    1.0  0.80488  0.59841  0.53370  1.0000
  Ti  Ti4875    1.0  0.53659  0.65714  0.53166  1.0000
  Ti  Ti4876    1.0  0.79268  0.49048  0.53166  1.0000
  Ti  Ti4877    1.0  0.52439  0.54921  0.52962  1.0000
  Ti  Ti4878    1.0  0.78049  0.38254  0.52962  1.0000
  Ti  Ti4879    1.0  0.51220  0.44127  0.52758  1.0000
  Ti  Ti4880    1.0  0.76829  0.60794  0.52758  1.0000
  Ti  Ti4881    1.0  0.50000  0.66667  0.52553  1.0000
  Ti  Ti4882    1.0  0.75610  0.50000  0.52553  1.0000
  Ti  Ti4883    1.0  1.00000  0.55873  0.52349  1.0000
  Ti  Ti4884    1.0  0.74390  0.39206  0.52349  1.0000
  Ti  Ti4885    1.0  0.98780  0.45079  0.52145  1.0000
  Ti  Ti4886    1.0  0.73171  0.61746  0.52145  1.0000
  Ti  Ti4887    1.0  0.97561  0.34286  0.51940  1.0000
  Ti  Ti4888    1.0  0.71951  0.50952  0.51940  1.0000
  Ti  Ti4889    1.0  0.96341  0.56825  0.51736  1.0000
  Ti  Ti4890    1.0  0.70732  0.40159  0.51736  1.0000
  Ti  Ti4891    1.0  0.95122  0.46032  0.51532  1.0000
  Ti  Ti4892    1.0  0.69512  0.62698  0.51532  1.0000
  Ti  Ti4893    1.0  0.93902  0.35238  0.51328  1.0000
  Ti  Ti4894    1.0  0.68293  0.51905  0.51328  1.0000
  Ti  Ti4895    1.0  0.92683  0.57778  0.51123  1.0000
  Ti  Ti4896    1.0  0.67073  0.41111  0.51123  1.0000
  Ti  Ti4897    1.0  0.91463  0.46984  0.50919  1.0000
  Ti  Ti4898    1.0  0.65854  0.63651  0.50919  1.0000
  Ti  Ti4899    1.0  0.90244  0.36190  0.50715  1.0000
  Ti  Ti4900    1.0  0.64634  0.52857  0.50715  1.0000
  Ti  Ti4901    1.0  0.89024  0.58730  0.50511  1.0000
  Ti  Ti4902    1.0  0.63415  0.42063  0.50511  1.0000
  Ti  Ti4903    1.0  0.87805  0.47937  0.50306  1.0000
  Ti  Ti4904    1.0  0.62195  0.64603  0.50306  1.0000
  Ti  Ti4905    1.0  0.86585  0.37143  0.50102  1.0000
  Ti  Ti4906    1.0  0.60976  0.53810  0.50102  1.0000
  Ti  Ti4907    1.0  0.50000  0.66667  0.95448  1.0000
  Ti  Ti4908    1.0  0.75610  0.83333  0.95448  1.0000
  Ti  Ti4909    1.0  1.00000  0.89206  0.95244  1.0000
  Ti  Ti4910    1.0  0.74390  0.72540  0.95244  1.0000
  Ti  Ti4911    1.0  0.98780  0.78413  0.95040  1.0000
  Ti  Ti4912    1.0  0.73171  0.95079  0.95040  1.0000
  Ti  Ti4913    1.0  0.97561  0.67619  0.94836  1.0000
  Ti  Ti4914    1.0  0.71951  0.84286  0.94836  1.0000
  Ti  Ti4915    1.0  0.96341  0.90159  0.94631  1.0000
  Ti  Ti4916    1.0  0.70732  0.73492  0.94631  1.0000
  Ti  Ti4917    1.0  0.95122  0.79365  0.94427  1.0000
  Ti  Ti4918    1.0  0.69512  0.96032  0.94427  1.0000
  Ti  Ti4919    1.0  0.93902  0.68571  0.94223  1.0000
  Ti  Ti4920    1.0  0.68293  0.85238  0.94223  1.0000
  Ti  Ti4921    1.0  0.92683  0.91111  0.94019  1.0000
  Ti  Ti4922    1.0  0.67073  0.74444  0.94019  1.0000
  Ti  Ti4923    1.0  0.91463  0.80317  0.93814  1.0000
  Ti  Ti4924    1.0  0.65854  0.96984  0.93814  1.0000
  Ti  Ti4925    1.0  0.90244  0.69524  0.93610  1.0000
  Ti  Ti4926    1.0  0.64634  0.86190  0.93610  1.0000
  Ti  Ti4927    1.0  0.89024  0.92063  0.93406  1.0000
  Ti  Ti4928    1.0  0.63415  0.75397  0.93406  1.0000
  Ti  Ti4929    1.0  0.87805  0.81270  0.93201  1.0000
  Ti  Ti4930    1.0  0.62195  0.97937  0.93201  1.0000
  Ti  Ti4931    1.0  0.86585  0.70476  0.92997  1.0000
  Ti  Ti4932    1.0  0.60976  0.87143  0.92997  1.0000
  Ti  Ti4933    1.0  0.85366  0.93016  0.92793  1.0000
  Ti  Ti4934    1.0  0.59756  0.76349  0.92793  1.0000
  Ti  Ti4935    1.0  0.84146  0.82222  0.92589  1.0000
  Ti  Ti4936    1.0  0.58537  0.98889  0.92589  1.0000
  Ti  Ti4937    1.0  0.82927  0.71429  0.92384  1.0000
  Ti  Ti4938    1.0  0.57317  0.88095  0.92384  1.0000
  Ti  Ti4939    1.0  0.81707  0.93968  0.92180  1.0000
  Ti  Ti4940    1.0  0.56098  0.77302  0.92180  1.0000
  Ti  Ti4941    1.0  0.80488  0.83175  0.91976  1.0000
  Ti  Ti4942    1.0  0.54878  0.99841  0.91976  1.0000
  Ti  Ti4943    1.0  0.79268  0.72381  0.91772  1.0000
  Ti  Ti4944    1.0  0.53659  0.89048  0.91772  1.0000
  Ti  Ti4945    1.0  0.78049  0.94921  0.91567  1.0000
  Ti  Ti4946    1.0  0.52439  0.78254  0.91567  1.0000
  Ti  Ti4947    1.0  0.76829  0.84127  0.91363  1.0000
  Ti  Ti4948    1.0  0.51220  0.67460  0.91363  1.0000
  Ti  Ti4949    1.0  0.75610  0.73333  0.91159  1.0000
  Ti  Ti4950    1.0  0.50000  0.90000  0.91159  1.0000
  Ti  Ti4951    1.0  0.74390  0.95873  0.90955  1.0000
  Ti  Ti4952    1.0  1.00000  0.79206  0.90955  1.0000
  Ti  Ti4953    1.0  0.73171  0.85079  0.90750  1.0000
  Ti  Ti4954    1.0  0.98780  0.68413  0.90750  1.0000
  Ti  Ti4955    1.0  0.71951  0.74286  0.90546  1.0000
  Ti  Ti4956    1.0  0.97561  0.90952  0.90546  1.0000
  Ti  Ti4957    1.0  0.70732  0.96825  0.90342  1.0000
  Ti  Ti4958    1.0  0.96341  0.80159  0.90342  1.0000
  Ti  Ti4959    1.0  0.69512  0.86032  0.90138  1.0000
  Ti  Ti4960    1.0  0.95122  0.69365  0.90138  1.0000
  Ti  Ti4961    1.0  0.68293  0.75238  0.89933  1.0000
  Ti  Ti4962    1.0  0.93902  0.91905  0.89933  1.0000
  Ti  Ti4963    1.0  0.67073  0.97778  0.89729  1.0000
  Ti  Ti4964    1.0  0.92683  0.81111  0.89729  1.0000
  Ti  Ti4965    1.0  0.65854  0.86984  0.89525  1.0000
  Ti  Ti4966    1.0  0.91463  0.70317  0.89525  1.0000
  Ti  Ti4967    1.0  0.64634  0.76190  0.89321  1.0000
  Ti  Ti4968    1.0  0.90244  0.92857  0.89321  1.0000
  Ti  Ti4969    1.0  0.63415  0.98730  0.89116  1.0000
  Ti  Ti4970    1.0  0.89024  0.82063  0.89116  1.0000
  Ti  Ti4971    1.0  0.62195  0.87937  0.88912  1.0000
  Ti  Ti4972    1.0  0.87805  0.71270  0.88912  1.0000
  Ti  Ti4973    1.0  0.60976  0.77143  0.88708  1.0000
  Ti  Ti4974    1.0  0.86585  0.93810  0.88708  1.0000
  Ti  Ti4975    1.0  0.59756  0.99683  0.88503  1.0000
  Ti  Ti4976    1.0  0.85366  0.83016  0.88503  1.0000
  Ti  Ti4977    1.0  0.58537  0.88889  0.88299  1.0000
  Ti  Ti4978    1.0  0.84146  0.72222  0.88299  1.0000
  Ti  Ti4979    1.0  0.57317  0.78095  0.88095  1.0000
  Ti  Ti4980    1.0  0.82927  0.94762  0.88095  1.0000
  Ti  Ti4981    1.0  0.56098  0.67302  0.87891  1.0000
  Ti  Ti4982    1.0  0.81707  0.83968  0.87891  1.0000
  Ti  Ti4983    1.0  0.54878  0.89841  0.87686  1.0000
  Ti  Ti4984    1.0  0.80488  0.73175  0.87686  1.0000
  Ti  Ti4985    1.0  0.53659  0.79048  0.87482  1.0000
  Ti  Ti4986    1.0  0.79268  0.95714  0.87482  1.0000
  Ti  Ti4987    1.0  0.52439  0.68254  0.87278  1.0000
  Ti  Ti4988    1.0  0.78049  0.84921  0.87278  1.0000
  Ti  Ti4989    1.0  0.51220  0.90794  0.87074  1.0000
  Ti  Ti4990    1.0  0.76829  0.74127  0.87074  1.0000
  Ti  Ti4991    1.0  0.50000  0.80000  0.86869  1.0000
  Ti  Ti4992    1.0  0.75610  0.96667  0.86869  1.0000
  Ti  Ti4993    1.0  1.00000  0.69206  0.86665  1.0000
  Ti  Ti4994    1.0  0.74390  0.85873  0.86665  1.0000
  Ti  Ti4995    1.0  0.98780  0.91746  0.86461  1.0000
  Ti  Ti4996    1.0  0.73171  0.75079  0.86461  1.0000
  Ti  Ti4997    1.0  0.97561  0.80952  0.86257  1.0000
  Ti  Ti4998    1.0  0.71951  0.97619  0.86257  1.0000
  Ti  Ti4999    1.0  0.96341  0.70159  0.86052  1.0000
  Ti  Ti5000    1.0  0.70732  0.86825  0.86052  1.0000
  Ti  Ti5001    1.0  0.95122  0.92698  0.85848  1.0000
  Ti  Ti5002    1.0  0.69512  0.76032  0.85848  1.0000
  Ti  Ti5003    1.0  0.93902  0.81905  0.85644  1.0000
  Ti  Ti5004    1.0  0.68293  0.98571  0.85644  1.0000
  Ti  Ti5005    1.0  0.92683  0.71111  0.85440  1.0000
  Ti  Ti5006    1.0  0.67073  0.87778  0.85440  1.0000
  Ti  Ti5007    1.0  0.91463  0.93651  0.85235  1.0000
  Ti  Ti5008    1.0  0.65854  0.76984  0.85235  1.0000
  Ti  Ti5009    1.0  0.90244  0.82857  0.85031  1.0000
  Ti  Ti5010    1.0  0.64634  0.99524  0.85031  1.0000
  Ti  Ti5011    1.0  0.89024  0.72063  0.84827  1.0000
  Ti  Ti5012    1.0  0.63415  0.88730  0.84827  1.0000
  Ti  Ti5013    1.0  0.87805  0.94603  0.84622  1.0000
  Ti  Ti5014    1.0  0.62195  0.77937  0.84622  1.0000
  Ti  Ti5015    1.0  0.86585  0.83810  0.84418  1.0000
  Ti  Ti5016    1.0  0.60976  0.67143  0.84418  1.0000
  Ti  Ti5017    1.0  0.85366  0.73016  0.84214  1.0000
  Ti  Ti5018    1.0  0.59756  0.89683  0.84214  1.0000
  Ti  Ti5019    1.0  0.84146  0.95556  0.84010  1.0000
  Ti  Ti5020    1.0  0.58537  0.78889  0.84010  1.0000
  Ti  Ti5021    1.0  0.82927  0.84762  0.83805  1.0000
  Ti  Ti5022    1.0  0.57317  0.68095  0.83805  1.0000
  Ti  Ti5023    1.0  0.81707  0.73968  0.83601  1.0000
  Ti  Ti5024    1.0  0.56098  0.90635  0.83601  1.0000
  Ti  Ti5025    1.0  0.80488  0.96508  0.83397  1.0000
  Ti  Ti5026    1.0  0.54878  0.79841  0.83397  1.0000
  Ti  Ti5027    1.0  0.79268  0.85714  0.83193  1.0000
  Ti  Ti5028    1.0  0.53659  0.69048  0.83193  1.0000
  Ti  Ti5029    1.0  0.78049  0.74921  0.82988  1.0000
  Ti  Ti5030    1.0  0.52439  0.91587  0.82988  1.0000
  Ti  Ti5031    1.0  0.76829  0.97460  0.82784  1.0000
  Ti  Ti5032    1.0  0.51220  0.80794  0.82784  1.0000
  Ti  Ti5033    1.0  0.75610  0.86667  0.82580  1.0000
  Ti  Ti5034    1.0  0.50000  0.70000  0.82580  1.0000
  Ti  Ti5035    1.0  0.74390  0.75873  0.82376  1.0000
  Ti  Ti5036    1.0  1.00000  0.92540  0.82376  1.0000
  Ti  Ti5037    1.0  0.73171  0.98413  0.82171  1.0000
  Ti  Ti5038    1.0  0.98780  0.81746  0.82171  1.0000
  Ti  Ti5039    1.0  0.71951  0.87619  0.81967  1.0000
  Ti  Ti5040    1.0  0.97561  0.70952  0.81967  1.0000
  Ti  Ti5041    1.0  0.70732  0.76825  0.81763  1.0000
  Ti  Ti5042    1.0  0.96341  0.93492  0.81763  1.0000
  Ti  Ti5043    1.0  0.69512  0.99365  0.81559  1.0000
  Ti  Ti5044    1.0  0.95122  0.82698  0.81559  1.0000
  Ti  Ti5045    1.0  0.68293  0.88571  0.81354  1.0000
  Ti  Ti5046    1.0  0.93902  0.71905  0.81354  1.0000
  Ti  Ti5047    1.0  0.67073  0.77778  0.81150  1.0000
  Ti  Ti5048    1.0  0.92683  0.94444  0.81150  1.0000
  Ti  Ti5049    1.0  0.65854  0.66984  0.80946  1.0000
  Ti  Ti5050    1.0  0.91463  0.83651  0.80946  1.0000
  Ti  Ti5051    1.0  0.64634  0.89524  0.80741  1.0000
  Ti  Ti5052    1.0  0.90244  0.72857  0.80741  1.0000
  Ti  Ti5053    1.0  0.63415  0.78730  0.80537  1.0000
  Ti  Ti5054    1.0  0.89024  0.95397  0.80537  1.0000
  Ti  Ti5055    1.0  0.62195  0.67937  0.80333  1.0000
  Ti  Ti5056    1.0  0.87805  0.84603  0.80333  1.0000
  Ti  Ti5057    1.0  0.60976  0.90476  0.80129  1.0000
  Ti  Ti5058    1.0  0.86585  0.73810  0.80129  1.0000
  Ti  Ti5059    1.0  0.59756  0.79683  0.79924  1.0000
  Ti  Ti5060    1.0  0.85366  0.96349  0.79924  1.0000
  Ti  Ti5061    1.0  0.58537  0.68889  0.79720  1.0000
  Ti  Ti5062    1.0  0.84146  0.85556  0.79720  1.0000
  Ti  Ti5063    1.0  0.57317  0.91429  0.79516  1.0000
  Ti  Ti5064    1.0  0.82927  0.74762  0.79516  1.0000
  Ti  Ti5065    1.0  0.56098  0.80635  0.79312  1.0000
  Ti  Ti5066    1.0  0.81707  0.97302  0.79312  1.0000
  Ti  Ti5067    1.0  0.54878  0.69841  0.79107  1.0000
  Ti  Ti5068    1.0  0.80488  0.86508  0.79107  1.0000
  Ti  Ti5069    1.0  0.53659  0.92381  0.78903  1.0000
  Ti  Ti5070    1.0  0.79268  0.75714  0.78903  1.0000
  Ti  Ti5071    1.0  0.52439  0.81587  0.78699  1.0000
  Ti  Ti5072    1.0  0.78049  0.98254  0.78699  1.0000
  Ti  Ti5073    1.0  0.51220  0.70794  0.78495  1.0000
  Ti  Ti5074    1.0  0.76829  0.87460  0.78495  1.0000
  Ti  Ti5075    1.0  0.50000  0.93333  0.78290  1.0000
  Ti  Ti5076    1.0  0.75610  0.76667  0.78290  1.0000
  Ti  Ti5077    1.0  1.00000  0.82540  0.78086  1.0000
  Ti  Ti5078    1.0  0.74390  0.99206  0.78086  1.0000
  Ti  Ti5079    1.0  0.98780  0.71746  0.77882  1.0000
  Ti  Ti5080    1.0  0.73171  0.88413  0.77882  1.0000
  Ti  Ti5081    1.0  0.97561  0.94286  0.77678  1.0000
  Ti  Ti5082    1.0  0.71951  0.77619  0.77678  1.0000
  Ti  Ti5083    1.0  0.96341  0.83492  0.77473  1.0000
  Ti  Ti5084    1.0  0.70732  0.66825  0.77473  1.0000
  Ti  Ti5085    1.0  0.95122  0.72698  0.77269  1.0000
  Ti  Ti5086    1.0  0.69512  0.89365  0.77269  1.0000
  Ti  Ti5087    1.0  0.93902  0.95238  0.77065  1.0000
  Ti  Ti5088    1.0  0.68293  0.78571  0.77065  1.0000
  Ti  Ti5089    1.0  0.92683  0.84444  0.76861  1.0000
  Ti  Ti5090    1.0  0.67073  0.67778  0.76861  1.0000
  Ti  Ti5091    1.0  0.91463  0.73651  0.76656  1.0000
  Ti  Ti5092    1.0  0.65854  0.90317  0.76656  1.0000
  Ti  Ti5093    1.0  0.90244  0.96190  0.76452  1.0000
  Ti  Ti5094    1.0  0.64634  0.79524  0.76452  1.0000
  Ti  Ti5095    1.0  0.89024  0.85397  0.76248  1.0000
  Ti  Ti5096    1.0  0.63415  0.68730  0.76248  1.0000
  Ti  Ti5097    1.0  0.87805  0.74603  0.76043  1.0000
  Ti  Ti5098    1.0  0.62195  0.91270  0.76043  1.0000
  Ti  Ti5099    1.0  0.86585  0.97143  0.75839  1.0000
  Ti  Ti5100    1.0  0.60976  0.80476  0.75839  1.0000
  Ti  Ti5101    1.0  0.85366  0.86349  0.75635  1.0000
  Ti  Ti5102    1.0  0.59756  0.69683  0.75635  1.0000
  Ti  Ti5103    1.0  0.84146  0.75556  0.75431  1.0000
  Ti  Ti5104    1.0  0.58537  0.92222  0.75431  1.0000
  Ti  Ti5105    1.0  0.82927  0.98095  0.75226  1.0000
  Ti  Ti5106    1.0  0.57317  0.81429  0.75226  1.0000
  Ti  Ti5107    1.0  0.81707  0.87302  0.75022  1.0000
  Ti  Ti5108    1.0  0.56098  0.70635  0.75022  1.0000
  Ti  Ti5109    1.0  0.80488  0.76508  0.74818  1.0000
  Ti  Ti5110    1.0  0.54878  0.93175  0.74818  1.0000
  Ti  Ti5111    1.0  0.79268  0.99048  0.74614  1.0000
  Ti  Ti5112    1.0  0.53659  0.82381  0.74614  1.0000
  Ti  Ti5113    1.0  0.78049  0.88254  0.74409  1.0000
  Ti  Ti5114    1.0  0.52439  0.71587  0.74409  1.0000
  Ti  Ti5115    1.0  0.76829  0.77460  0.74205  1.0000
  Ti  Ti5116    1.0  0.51220  0.94127  0.74205  1.0000
  Ti  Ti5117    1.0  0.75610  0.00000  0.74001  1.0000
  Ti  Ti5118    1.0  0.50000  0.83333  0.74001  1.0000
  Ti  Ti5119    1.0  0.74390  0.89206  0.73797  1.0000
  Ti  Ti5120    1.0  1.00000  0.72540  0.73797  1.0000
  Ti  Ti5121    1.0  0.73171  0.78413  0.73592  1.0000
  Ti  Ti5122    1.0  0.98780  0.95079  0.73592  1.0000
  Ti  Ti5123    1.0  0.71951  0.67619  0.73388  1.0000
  Ti  Ti5124    1.0  0.97561  0.84286  0.73388  1.0000
  Ti  Ti5125    1.0  0.70732  0.90159  0.73184  1.0000
  Ti  Ti5126    1.0  0.96341  0.73492  0.73184  1.0000
  Ti  Ti5127    1.0  0.69512  0.79365  0.72980  1.0000
  Ti  Ti5128    1.0  0.95122  0.96032  0.72980  1.0000
  Ti  Ti5129    1.0  0.68293  0.68571  0.72775  1.0000
  Ti  Ti5130    1.0  0.93902  0.85238  0.72775  1.0000
  Ti  Ti5131    1.0  0.67073  0.91111  0.72571  1.0000
  Ti  Ti5132    1.0  0.92683  0.74444  0.72571  1.0000
  Ti  Ti5133    1.0  0.65854  0.80317  0.72367  1.0000
  Ti  Ti5134    1.0  0.91463  0.96984  0.72367  1.0000
  Ti  Ti5135    1.0  0.64634  0.69524  0.72162  1.0000
  Ti  Ti5136    1.0  0.90244  0.86190  0.72162  1.0000
  Ti  Ti5137    1.0  0.63415  0.92063  0.71958  1.0000
  Ti  Ti5138    1.0  0.89024  0.75397  0.71958  1.0000
  Ti  Ti5139    1.0  0.62195  0.81270  0.71754  1.0000
  Ti  Ti5140    1.0  0.87805  0.97937  0.71754  1.0000
  Ti  Ti5141    1.0  0.60976  0.70476  0.71550  1.0000
  Ti  Ti5142    1.0  0.86585  0.87143  0.71550  1.0000
  Ti  Ti5143    1.0  0.59756  0.93016  0.71345  1.0000
  Ti  Ti5144    1.0  0.85366  0.76349  0.71345  1.0000
  Ti  Ti5145    1.0  0.58537  0.82222  0.71141  1.0000
  Ti  Ti5146    1.0  0.84146  0.98889  0.71141  1.0000
  Ti  Ti5147    1.0  0.57317  0.71429  0.70937  1.0000
  Ti  Ti5148    1.0  0.82927  0.88095  0.70937  1.0000
  Ti  Ti5149    1.0  0.56098  0.93968  0.70733  1.0000
  Ti  Ti5150    1.0  0.81707  0.77302  0.70733  1.0000
  Ti  Ti5151    1.0  0.54878  0.83175  0.70528  1.0000
  Ti  Ti5152    1.0  0.80488  0.99841  0.70528  1.0000
  Ti  Ti5153    1.0  0.53659  0.72381  0.70324  1.0000
  Ti  Ti5154    1.0  0.79268  0.89048  0.70324  1.0000
  Ti  Ti5155    1.0  0.52439  0.94921  0.70120  1.0000
  Ti  Ti5156    1.0  0.78049  0.78254  0.70120  1.0000
  Ti  Ti5157    1.0  0.51220  0.84127  0.69916  1.0000
  Ti  Ti5158    1.0  0.76829  0.67460  0.69916  1.0000
  Ti  Ti5159    1.0  0.50000  0.73333  0.69711  1.0000
  Ti  Ti5160    1.0  0.75610  0.90000  0.69711  1.0000
  Ti  Ti5161    1.0  1.00000  0.95873  0.69507  1.0000
  Ti  Ti5162    1.0  0.74390  0.79206  0.69507  1.0000
  Ti  Ti5163    1.0  0.98780  0.85079  0.69303  1.0000
  Ti  Ti5164    1.0  0.73171  0.68413  0.69303  1.0000
  Ti  Ti5165    1.0  0.97561  0.74286  0.69099  1.0000
  Ti  Ti5166    1.0  0.71951  0.90952  0.69099  1.0000
  Ti  Ti5167    1.0  0.96341  0.96825  0.68894  1.0000
  Ti  Ti5168    1.0  0.70732  0.80159  0.68894  1.0000
  Ti  Ti5169    1.0  0.95122  0.86032  0.68690  1.0000
  Ti  Ti5170    1.0  0.69512  0.69365  0.68690  1.0000
  Ti  Ti5171    1.0  0.93902  0.75238  0.68486  1.0000
  Ti  Ti5172    1.0  0.68293  0.91905  0.68486  1.0000
  Ti  Ti5173    1.0  0.92683  0.97778  0.68281  1.0000
  Ti  Ti5174    1.0  0.67073  0.81111  0.68281  1.0000
  Ti  Ti5175    1.0  0.91463  0.86984  0.68077  1.0000
  Ti  Ti5176    1.0  0.65854  0.70317  0.68077  1.0000
  Ti  Ti5177    1.0  0.90244  0.76190  0.67873  1.0000
  Ti  Ti5178    1.0  0.64634  0.92857  0.67873  1.0000
  Ti  Ti5179    1.0  0.89024  0.98730  0.67669  1.0000
  Ti  Ti5180    1.0  0.63415  0.82063  0.67669  1.0000
  Ti  Ti5181    1.0  0.87805  0.87937  0.67464  1.0000
  Ti  Ti5182    1.0  0.62195  0.71270  0.67464  1.0000
  Ti  Ti5183    1.0  0.86585  0.77143  0.67260  1.0000
  Ti  Ti5184    1.0  0.60976  0.93810  0.67260  1.0000
  Ti  Ti5185    1.0  0.85366  0.99683  0.67056  1.0000
  Ti  Ti5186    1.0  0.59756  0.83016  0.67056  1.0000
  Ti  Ti5187    1.0  0.84146  0.88889  0.66852  1.0000
  Ti  Ti5188    1.0  0.58537  0.72222  0.66852  1.0000
  Ti  Ti5189    1.0  0.82927  0.78095  0.66647  1.0000
  Ti  Ti5190    1.0  0.57317  0.94762  0.66647  1.0000
  Ti  Ti5191    1.0  0.81707  0.67302  0.66443  1.0000
  Ti  Ti5192    1.0  0.56098  0.83968  0.66443  1.0000
  Ti  Ti5193    1.0  0.80488  0.89841  0.66239  1.0000
  Ti  Ti5194    1.0  0.54878  0.73175  0.66239  1.0000
  Ti  Ti5195    1.0  0.79268  0.79048  0.66035  1.0000
  Ti  Ti5196    1.0  0.53659  0.95714  0.66035  1.0000
  Ti  Ti5197    1.0  0.78049  0.68254  0.65830  1.0000
  Ti  Ti5198    1.0  0.52439  0.84921  0.65830  1.0000
  Ti  Ti5199    1.0  0.76829  0.90794  0.65626  1.0000
  Ti  Ti5200    1.0  0.51220  0.74127  0.65626  1.0000
  Ti  Ti5201    1.0  0.75610  0.80000  0.65422  1.0000
  Ti  Ti5202    1.0  0.50000  0.96667  0.65422  1.0000
  Ti  Ti5203    1.0  0.74390  0.69206  0.65218  1.0000
  Ti  Ti5204    1.0  1.00000  0.85873  0.65218  1.0000
  Ti  Ti5205    1.0  0.73171  0.91746  0.65013  1.0000
  Ti  Ti5206    1.0  0.98780  0.75079  0.65013  1.0000
  Ti  Ti5207    1.0  0.71951  0.80952  0.64809  1.0000
  Ti  Ti5208    1.0  0.97561  0.97619  0.64809  1.0000
  Ti  Ti5209    1.0  0.70732  0.70159  0.64605  1.0000
  Ti  Ti5210    1.0  0.96341  0.86825  0.64605  1.0000
  Ti  Ti5211    1.0  0.69512  0.92698  0.64400  1.0000
  Ti  Ti5212    1.0  0.95122  0.76032  0.64400  1.0000
  Ti  Ti5213    1.0  0.68293  0.81905  0.64196  1.0000
  Ti  Ti5214    1.0  0.93902  0.98571  0.64196  1.0000
  Ti  Ti5215    1.0  0.67073  0.71111  0.63992  1.0000
  Ti  Ti5216    1.0  0.92683  0.87778  0.63992  1.0000
  Ti  Ti5217    1.0  0.65854  0.93651  0.63788  1.0000
  Ti  Ti5218    1.0  0.91463  0.76984  0.63788  1.0000
  Ti  Ti5219    1.0  0.64634  0.82857  0.63583  1.0000
  Ti  Ti5220    1.0  0.90244  0.99524  0.63583  1.0000
  Ti  Ti5221    1.0  0.63415  0.72063  0.63379  1.0000
  Ti  Ti5222    1.0  0.89024  0.88730  0.63379  1.0000
  Ti  Ti5223    1.0  0.62195  0.94603  0.63175  1.0000
  Ti  Ti5224    1.0  0.87805  0.77937  0.63175  1.0000
  Ti  Ti5225    1.0  0.60976  0.83810  0.62971  1.0000
  Ti  Ti5226    1.0  0.86585  0.67143  0.62971  1.0000
  Ti  Ti5227    1.0  0.59756  0.73016  0.62766  1.0000
  Ti  Ti5228    1.0  0.85366  0.89683  0.62766  1.0000
  Ti  Ti5229    1.0  0.58537  0.95556  0.62562  1.0000
  Ti  Ti5230    1.0  0.84146  0.78889  0.62562  1.0000
  Ti  Ti5231    1.0  0.57317  0.84762  0.62358  1.0000
  Ti  Ti5232    1.0  0.82927  0.68095  0.62358  1.0000
  Ti  Ti5233    1.0  0.56098  0.73968  0.62154  1.0000
  Ti  Ti5234    1.0  0.81707  0.90635  0.62154  1.0000
  Ti  Ti5235    1.0  0.54878  0.96508  0.61949  1.0000
  Ti  Ti5236    1.0  0.80488  0.79841  0.61949  1.0000
  Ti  Ti5237    1.0  0.53659  0.85714  0.61745  1.0000
  Ti  Ti5238    1.0  0.79268  0.69048  0.61745  1.0000
  Ti  Ti5239    1.0  0.52439  0.74921  0.61541  1.0000
  Ti  Ti5240    1.0  0.78049  0.91587  0.61541  1.0000
  Ti  Ti5241    1.0  0.51220  0.97460  0.61337  1.0000
  Ti  Ti5242    1.0  0.76829  0.80794  0.61337  1.0000
  Ti  Ti5243    1.0  0.50000  0.86667  0.61132  1.0000
  Ti  Ti5244    1.0  0.75610  0.70000  0.61132  1.0000
  Ti  Ti5245    1.0  0.00000  0.75873  0.60928  1.0000
  Ti  Ti5246    1.0  0.74390  0.92540  0.60928  1.0000
  Ti  Ti5247    1.0  0.98780  0.98413  0.60724  1.0000
  Ti  Ti5248    1.0  0.73171  0.81746  0.60724  1.0000
  Ti  Ti5249    1.0  0.97561  0.87619  0.60520  1.0000
  Ti  Ti5250    1.0  0.71951  0.70952  0.60520  1.0000
  Ti  Ti5251    1.0  0.96341  0.76825  0.60315  1.0000
  Ti  Ti5252    1.0  0.70732  0.93492  0.60315  1.0000
  Ti  Ti5253    1.0  0.95122  0.99365  0.60111  1.0000
  Ti  Ti5254    1.0  0.69512  0.82698  0.60111  1.0000
  Ti  Ti5255    1.0  0.93902  0.88571  0.59907  1.0000
  Ti  Ti5256    1.0  0.68293  0.71905  0.59907  1.0000
  Ti  Ti5257    1.0  0.92683  0.77778  0.59702  1.0000
  Ti  Ti5258    1.0  0.67073  0.94444  0.59702  1.0000
  Ti  Ti5259    1.0  0.91463  0.66984  0.59498  1.0000
  Ti  Ti5260    1.0  0.65854  0.83651  0.59498  1.0000
  Ti  Ti5261    1.0  0.90244  0.89524  0.59294  1.0000
  Ti  Ti5262    1.0  0.64634  0.72857  0.59294  1.0000
  Ti  Ti5263    1.0  0.89024  0.78730  0.59090  1.0000
  Ti  Ti5264    1.0  0.63415  0.95397  0.59090  1.0000
  Ti  Ti5265    1.0  0.87805  0.67937  0.58885  1.0000
  Ti  Ti5266    1.0  0.62195  0.84603  0.58885  1.0000
  Ti  Ti5267    1.0  0.86585  0.90476  0.58681  1.0000
  Ti  Ti5268    1.0  0.60976  0.73810  0.58681  1.0000
  Ti  Ti5269    1.0  0.85366  0.79683  0.58477  1.0000
  Ti  Ti5270    1.0  0.59756  0.96349  0.58477  1.0000
  Ti  Ti5271    1.0  0.84146  0.68889  0.58273  1.0000
  Ti  Ti5272    1.0  0.58537  0.85556  0.58273  1.0000
  Ti  Ti5273    1.0  0.82927  0.91429  0.58068  1.0000
  Ti  Ti5274    1.0  0.57317  0.74762  0.58068  1.0000
  Ti  Ti5275    1.0  0.81707  0.80635  0.57864  1.0000
  Ti  Ti5276    1.0  0.56098  0.97302  0.57864  1.0000
  Ti  Ti5277    1.0  0.80488  0.69841  0.57660  1.0000
  Ti  Ti5278    1.0  0.54878  0.86508  0.57660  1.0000
  Ti  Ti5279    1.0  0.79268  0.92381  0.57456  1.0000
  Ti  Ti5280    1.0  0.53659  0.75714  0.57456  1.0000
  Ti  Ti5281    1.0  0.78049  0.81587  0.57251  1.0000
  Ti  Ti5282    1.0  0.52439  0.98254  0.57251  1.0000
  Ti  Ti5283    1.0  0.76829  0.70794  0.57047  1.0000
  Ti  Ti5284    1.0  0.51220  0.87460  0.57047  1.0000
  Ti  Ti5285    1.0  0.75610  0.93333  0.56843  1.0000
  Ti  Ti5286    1.0  0.50000  0.76667  0.56843  1.0000
  Ti  Ti5287    1.0  0.74390  0.82540  0.56639  1.0000
  Ti  Ti5288    1.0  1.00000  0.99206  0.56639  1.0000
  Ti  Ti5289    1.0  0.73171  0.71746  0.56434  1.0000
  Ti  Ti5290    1.0  0.98780  0.88413  0.56434  1.0000
  Ti  Ti5291    1.0  0.71951  0.94286  0.56230  1.0000
  Ti  Ti5292    1.0  0.97561  0.77619  0.56230  1.0000
  Ti  Ti5293    1.0  0.70732  0.83492  0.56026  1.0000
  Ti  Ti5294    1.0  0.96341  0.66825  0.56026  1.0000
  Ti  Ti5295    1.0  0.69512  0.72698  0.55821  1.0000
  Ti  Ti5296    1.0  0.95122  0.89365  0.55821  1.0000
  Ti  Ti5297    1.0  0.68293  0.95238  0.55617  1.0000
  Ti  Ti5298    1.0  0.93902  0.78571  0.55617  1.0000
  Ti  Ti5299    1.0  0.67073  0.84444  0.55413  1.0000
  Ti  Ti5300    1.0  0.92683  0.67778  0.55413  1.0000
  Ti  Ti5301    1.0  0.65854  0.73651  0.55209  1.0000
  Ti  Ti5302    1.0  0.91463  0.90317  0.55209  1.0000
  Ti  Ti5303    1.0  0.64634  0.96190  0.55004  1.0000
  Ti  Ti5304    1.0  0.90244  0.79524  0.55004  1.0000
  Ti  Ti5305    1.0  0.63415  0.85397  0.54800  1.0000
  Ti  Ti5306    1.0  0.89024  0.68730  0.54800  1.0000
  Ti  Ti5307    1.0  0.62195  0.74603  0.54596  1.0000
  Ti  Ti5308    1.0  0.87805  0.91270  0.54596  1.0000
  Ti  Ti5309    1.0  0.60976  0.97143  0.54392  1.0000
  Ti  Ti5310    1.0  0.86585  0.80476  0.54392  1.0000
  Ti  Ti5311    1.0  0.59756  0.86349  0.54187  1.0000
  Ti  Ti5312    1.0  0.85366  0.69683  0.54187  1.0000
  Ti  Ti5313    1.0  0.58537  0.75556  0.53983  1.0000
  Ti  Ti5314    1.0  0.84146  0.92222  0.53983  1.0000
  Ti  Ti5315    1.0  0.57317  0.98095  0.53779  1.0000
  Ti  Ti5316    1.0  0.82927  0.81429  0.53779  1.0000
  Ti  Ti5317    1.0  0.56098  0.87302  0.53575  1.0000
  Ti  Ti5318    1.0  0.81707  0.70635  0.53575  1.0000
  Ti  Ti5319    1.0  0.54878  0.76508  0.53370  1.0000
  Ti  Ti5320    1.0  0.80488  0.93175  0.53370  1.0000
  Ti  Ti5321    1.0  0.53659  0.99048  0.53166  1.0000
  Ti  Ti5322    1.0  0.79268  0.82381  0.53166  1.0000
  Ti  Ti5323    1.0  0.52439  0.88254  0.52962  1.0000
  Ti  Ti5324    1.0  0.78049  0.71587  0.52962  1.0000
  Ti  Ti5325    1.0  0.51220  0.77460  0.52758  1.0000
  Ti  Ti5326    1.0  0.76829  0.94127  0.52758  1.0000
  Ti  Ti5327    1.0  0.50000  1.00000  0.52553  1.0000
  Ti  Ti5328    1.0  0.75610  0.83333  0.52553  1.0000
  Ti  Ti5329    1.0  1.00000  0.89206  0.52349  1.0000
  Ti  Ti5330    1.0  0.74390  0.72540  0.52349  1.0000
  Ti  Ti5331    1.0  0.98780  0.78413  0.52145  1.0000
  Ti  Ti5332    1.0  0.73171  0.95079  0.52145  1.0000
  Ti  Ti5333    1.0  0.97561  0.67619  0.51940  1.0000
  Ti  Ti5334    1.0  0.71951  0.84286  0.51940  1.0000
  Ti  Ti5335    1.0  0.96341  0.90159  0.51736  1.0000
  Ti  Ti5336    1.0  0.70732  0.73492  0.51736  1.0000
  Ti  Ti5337    1.0  0.95122  0.79365  0.51532  1.0000
  Ti  Ti5338    1.0  0.69512  0.96032  0.51532  1.0000
  Ti  Ti5339    1.0  0.93902  0.68571  0.51328  1.0000
  Ti  Ti5340    1.0  0.68293  0.85238  0.51328  1.0000
  Ti  Ti5341    1.0  0.92683  0.91111  0.51123  1.0000
  Ti  Ti5342    1.0  0.67073  0.74444  0.51123  1.0000
  Ti  Ti5343    1.0  0.91463  0.80317  0.50919  1.0000
  Ti  Ti5344    1.0  0.65854  0.96984  0.50919  1.0000
  Ti  Ti5345    1.0  0.90244  0.69524  0.50715  1.0000
  Ti  Ti5346    1.0  0.64634  0.86190  0.50715  1.0000
  Ti  Ti5347    1.0  0.89024  0.92063  0.50511  1.0000
  Ti  Ti5348    1.0  0.63415  0.75397  0.50511  1.0000
  Ti  Ti5349    1.0  0.87805  0.81270  0.50306  1.0000
  Ti  Ti5350    1.0  0.62195  0.97937  0.50306  1.0000
  Ti  Ti5351    1.0  0.86585  0.70476  0.50102  1.0000
  Ti  Ti5352    1.0  0.60976  0.87143  0.50102  1.0000
