data_image0
_chemical_formula_structural       Ti761
_chemical_formula_sum              "Ti761"
_cell_length_a       15.929697813580068
_cell_length_b       19.23693770579491
_cell_length_c       60.3964569878321
_cell_angle_alpha    97.84563985253139
_cell_angle_beta     83.69063663045708
_cell_angle_gamma    90.0

_space_group_name_H-M_alt    "P 1"
_space_group_IT_number       1

loop_
  _space_group_symop_operation_xyz
  'x, y, z'

loop_
  _atom_site_type_symbol
  _atom_site_label
  _atom_site_symmetry_multiplicity
  _atom_site_fract_x
  _atom_site_fract_y
  _atom_site_fract_z
  _atom_site_occupancy
  Ti  Ti1       1.0  0.0  0.0  0.0  1.0000
  Ti  Ti2       1.0  0.9811320756884743  0.06226415072042643  0.04528301900418387  1.0000
  Ti  Ti3       1.0  0.3207547171256494  0.04150943381361769  0.030188679336122595  1.0000
  Ti  Ti4       1.0  0.3018867928141238  0.10377358453404407  0.07547169834030643  1.0000
  Ti  Ti5       1.0  0.07547169820353093  0.15094339613351102  0.0188679245850766  1.0000
  Ti  Ti6       1.0  0.05660377389200524  0.2132075468539374  0.06415094358926043  1.0000
  Ti  Ti7       1.0  0.14150943425129903  0.08301886762723527  0.06037735867224513  1.0000
  Ti  Ti8       1.0  0.12264150993977342  0.14528301834766166  0.10566037767642901  1.0000
  Ti  Ti9       1.0  0.9622641513769488  0.12452830144085289  0.09056603800836772  1.0000
  Ti  Ti10      1.0  0.9433962270654228  0.1867924521612792  0.13584905701255154  1.0000
  Ti  Ti11      1.0  0.028301887424716732  0.056603772934577065  0.13207547209553622  1.0000
  Ti  Ti12      1.0  0.00943396311319099  0.11886792365500344  0.17735849109972004  1.0000
  Ti  Ti13      1.0  0.3301886792814123  0.26037735845340454  0.007547169834030668  1.0000
  Ti  Ti14      1.0  0.31132075496988665  0.32264150917383094  0.052830188838214505  1.0000
  Ti  Ti15      1.0  0.3962264153291804  0.1924528299471287  0.04905660392119918  1.0000
  Ti  Ti16      1.0  0.3773584910176547  0.25471698066755516  0.09433962292538299  1.0000
  Ti  Ti17      1.0  0.15094339640706186  0.30188679226702203  0.0377358491701532  1.0000
  Ti  Ti18      1.0  0.13207547209553622  0.36415094298744854  0.08301886817433705  1.0000
  Ti  Ti19      1.0  0.21698113245482986  0.23396226376074633  0.0792452832573217  1.0000
  Ti  Ti20      1.0  0.19811320814330416  0.29622641448117265  0.12452830226150555  1.0000
  Ti  Ti21      1.0  0.28301886850259805  0.16603773525447055  0.12075471734449025  1.0000
  Ti  Ti22      1.0  0.2641509441910723  0.228301885974897  0.16603773634867405  1.0000
  Ti  Ti23      1.0  0.3490566045503661  0.09811320674819464  0.16226415143165884  1.0000
  Ti  Ti24      1.0  0.33018868023884046  0.16037735746862128  0.20754717043584256  1.0000
  Ti  Ti25      1.0  0.9716981135327114  0.3433962260806397  0.0679245285062758  1.0000
  Ti  Ti26      1.0  0.9528301892211859  0.4056603768010658  0.11320754751045965  1.0000
  Ti  Ti27      1.0  0.0377358495804795  0.27547169757436385  0.1094339625934443  1.0000
  Ti  Ti28      1.0  0.01886792526895386  0.33773584829479014  0.15471698159762814  1.0000
  Ti  Ti29      1.0  0.10377358562824765  0.207547169068088  0.15094339668061282  1.0000
  Ti  Ti30      1.0  0.0849056613167218  0.2698113197885144  0.19622641568479662  1.0000
  Ti  Ti31      1.0  0.16981132167601568  0.13962264056181226  0.19245283076778136  1.0000
  Ti  Ti32      1.0  0.15094339736449022  0.2018867912822387  0.2377358497719652  1.0000
  Ti  Ti33      1.0  0.9245283027538972  0.24905660288170564  0.1811320760167354  1.0000
  Ti  Ti34      1.0  0.9056603784423718  0.31132075360213185  0.22641509502091933  1.0000
  Ti  Ti35      1.0  0.9905660388016653  0.18113207437542997  0.22264151010390387  1.0000
  Ti  Ti36      1.0  0.9716981144901395  0.2433962250958562  0.2679245291080878  1.0000
  Ti  Ti37      1.0  0.056603774849433464  0.11320754586915413  0.26415094419107243  1.0000
  Ti  Ti38      1.0  0.03773585053790786  0.17547169658958037  0.30943396319525635  1.0000
  Ti  Ti39      1.0  0.8773584919750831  0.15471697968277145  0.294339623527195  1.0000
  Ti  Ti40      1.0  0.858490567663557  0.21698113040319789  0.3396226425313788  1.0000
  Ti  Ti41      1.0  0.40566037748494327  0.4113207545869156  0.02641509441910727  1.0000
  Ti  Ti42      1.0  0.3867924531734176  0.473584905307342  0.07169811342329106  1.0000
  Ti  Ti43      1.0  0.16037735856282476  0.5207547169068091  0.015094339668061302  1.0000
  Ti  Ti44      1.0  0.14150943425129914  0.5830188676272353  0.060377358672245154  1.0000
  Ti  Ti45      1.0  0.2264150946105928  0.4528301884005331  0.056603773755229826  1.0000
  Ti  Ti46      1.0  0.20754717029906702  0.5150943391209594  0.10188679275941366  1.0000
  Ti  Ti47      1.0  0.292452830658361  0.3849056598942574  0.09811320784239835  1.0000
  Ti  Ti48      1.0  0.27358490634683524  0.44716981061468375  0.14339622684658218  1.0000
  Ti  Ti49      1.0  0.358490566706129  0.31698113138798156  0.13962264192956683  1.0000
  Ti  Ti50      1.0  0.3396226423946033  0.37924528210840786  0.18490566093375072  1.0000
  Ti  Ti51      1.0  0.9811320756884745  0.5622641507204263  0.045283019004183855  1.0000
  Ti  Ti52      1.0  0.9622641513769484  0.6245283014408527  0.0905660380083677  1.0000
  Ti  Ti53      1.0  0.047169811736242434  0.4943396222141506  0.08679245309135238  1.0000
  Ti  Ti54      1.0  0.028301887424716732  0.5566037729345771  0.13207547209553622  1.0000
  Ti  Ti55      1.0  0.11320754778401047  0.4264150937078747  0.12830188717852087  1.0000
  Ti  Ti56      1.0  0.09433962347248487  0.4886792444283014  0.17358490618270472  1.0000
  Ti  Ti57      1.0  0.1792452838317786  0.358490565201599  0.16981132126568949  1.0000
  Ti  Ti58      1.0  0.16037735952025267  0.4207547159220255  0.2150943402698732  1.0000
  Ti  Ti59      1.0  0.24528301987954673  0.2905660366953232  0.21132075535285802  1.0000
  Ti  Ti60      1.0  0.2264150955680209  0.35283018741574956  0.25660377435704174  1.0000
  Ti  Ti61      1.0  0.3113207559273143  0.2226415081890477  0.25283018944002644  1.0000
  Ti  Ti62      1.0  0.29245283161578894  0.28490565890947395  0.2981132084442103  1.0000
  Ti  Ti63      1.0  0.9339622649096601  0.4679245275214925  0.15849056651464344  1.0000
  Ti  Ti64      1.0  0.9150943405981345  0.530188678241919  0.20377358551882735  1.0000
  Ti  Ti65      1.0  9.574281191105345e-10  0.39999999901521666  0.20000000060181194  1.0000
  Ti  Ti66      1.0  0.9811320766459026  0.46226414973564317  0.24528301960599588  1.0000
  Ti  Ti67      1.0  0.06603773700519606  0.3320754705089408  0.24150943468898048  1.0000
  Ti  Ti68      1.0  0.04716981269367079  0.3943396212293672  0.2867924536931644  1.0000
  Ti  Ti69      1.0  0.1320754730529644  0.2641509420026648  0.28301886877614907  1.0000
  Ti  Ti70      1.0  0.11320754874143846  0.32641509272309127  0.3283018877803328  1.0000
  Ti  Ti71      1.0  0.19811320910073213  0.19622641349638928  0.3245283028633175  1.0000
  Ti  Ti72      1.0  0.8867924541308457  0.3735849043225586  0.2716981140251031  1.0000
  Ti  Ti73      1.0  0.8679245298193199  0.4358490550429848  0.3169811330292869  1.0000
  Ti  Ti74      1.0  0.9528301901786138  0.30566037581628286  0.3132075481122716  1.0000
  Ti  Ti75      1.0  0.9339622658670881  0.36792452653670915  0.35849056711645544  1.0000
  Ti  Ti76      1.0  0.018867926226382115  0.237735847310007  0.35471698219944015  1.0000
  Ti  Ti77      1.0  0.8396226433520317  0.2792452811236243  0.3849056615355628  1.0000
  Ti  Ti78      1.0  0.41509433964070613  0.6301886792267025  0.003773584917015317  1.0000
  Ti  Ti79      1.0  0.3962264153291804  0.6924528299471288  0.04905660392119918  1.0000
  Ti  Ti80      1.0  0.2358490567663555  0.6716981130403199  0.03396226425313788  1.0000
  Ti  Ti81      1.0  0.21698113245482983  0.7339622637607465  0.07924528325732172  1.0000
  Ti  Ti82      1.0  0.30188679281412373  0.6037735845340441  0.0754716983403064  1.0000
  Ti  Ti83      1.0  0.28301886850259805  0.6660377352544709  0.12075471734449024  1.0000
  Ti  Ti84      1.0  0.36792452886189186  0.5358490560277681  0.11698113242747496  1.0000
  Ti  Ti85      1.0  0.34905660455036613  0.5981132067481948  0.16226415143165876  1.0000
  Ti  Ti86      1.0  0.9905660378442372  0.7811320753602133  0.022641509502091955  1.0000
  Ti  Ti87      1.0  0.9716981135327114  0.8433962260806398  0.06792452850627573  1.0000
  Ti  Ti88      1.0  0.056603773892005174  0.7132075468539374  0.06415094358926043  1.0000
  Ti  Ti89      1.0  0.037735849580479604  0.775471697574364  0.10943396259344433  1.0000
  Ti  Ti90      1.0  0.12264150993977335  0.6452830183476617  0.10566037767642897  1.0000
  Ti  Ti91      1.0  0.10377358562824761  0.7075471690680883  0.15094339668061274  1.0000
  Ti  Ti92      1.0  0.1886792459875414  0.5773584898413859  0.14716981176359753  1.0000
  Ti  Ti93      1.0  0.16981132167601581  0.6396226405618125  0.19245283076778139  1.0000
  Ti  Ti94      1.0  0.2547169820353095  0.5094339613351101  0.18867924585076598  1.0000
  Ti  Ti95      1.0  0.2358490577237839  0.5716981120555368  0.23396226485494984  1.0000
  Ti  Ti96      1.0  0.3207547180830773  0.4415094328288345  0.2301886799379345  1.0000
  Ti  Ti97      1.0  0.3018867937715521  0.5037735835492608  0.2754716989421185  1.0000
  Ti  Ti98      1.0  0.943396227065423  0.6867924521612793  0.13584905701255154  1.0000
  Ti  Ti99      1.0  0.9245283027538974  0.7490566028817056  0.1811320760167354  1.0000
  Ti  Ti100     1.0  0.009433963113191057  0.6188679236550033  0.17735849109972007  1.0000
  Ti  Ti101     1.0  0.9905660388016653  0.6811320743754299  0.22264151010390393  1.0000
  Ti  Ti102     1.0  0.075471699160959  0.5509433951487277  0.2188679251868886  1.0000
  Ti  Ti103     1.0  0.056603774849433464  0.6132075458691543  0.2641509441910725  1.0000
  Ti  Ti104     1.0  0.14150943520872722  0.48301886664245186  0.2603773592740571  1.0000
  Ti  Ti105     1.0  0.12264151089720167  0.545283017362878  0.30566037827824105  1.0000
  Ti  Ti106     1.0  0.2075471712564953  0.415094338136176  0.30188679336122565  1.0000
  Ti  Ti107     1.0  0.1886792469449695  0.47735848885660237  0.3471698123654095  1.0000
  Ti  Ti108     1.0  0.27358490730426366  0.34716980962990035  0.3433962274483942  1.0000
  Ti  Ti109     1.0  0.8962264162866087  0.5924528289623453  0.2490566045230111  1.0000
  Ti  Ti110     1.0  0.8773584919750831  0.6547169796827713  0.29433962352719506  1.0000
  Ti  Ti111     1.0  0.962264152334377  0.5245283004560697  0.29056603861017966  1.0000
  Ti  Ti112     1.0  0.9433962280228513  0.5867924511764956  0.3358490576143636  1.0000
  Ti  Ti113     1.0  0.028301888382144917  0.456603771949794  0.3320754726973481  1.0000
  Ti  Ti114     1.0  0.009433964070619177  0.5188679226702204  0.37735849170153196  1.0000
  Ti  Ti115     1.0  0.09433962442991299  0.3886792434435179  0.3735849067845167  1.0000
  Ti  Ti116     1.0  0.8490566055077944  0.4981132057634113  0.3622641520334708  1.0000
  Ti  Ti117     1.0  0.8301886811962685  0.5603773564838376  0.40754717103765453  1.0000
  Ti  Ti118     1.0  0.9150943415555628  0.4301886772571357  0.40377358612063935  1.0000
  Ti  Ti119     1.0  0.24528301892211846  0.8905660376801067  0.011320754751045952  1.0000
  Ti  Ti120     1.0  0.22641509461059312  0.9528301884005337  0.05660377375522988  1.0000
  Ti  Ti121     1.0  0.3113207549698867  0.8226415091738312  0.052830188838214505  1.0000
  Ti  Ti122     1.0  0.2924528306583609  0.8849056598942574  0.09811320784239835  1.0000
  Ti  Ti123     1.0  0.37735849101765473  0.7547169806675551  0.09433962292538302  1.0000
  Ti  Ti124     1.0  0.3584905667061291  0.8169811313879816  0.13962264192956692  1.0000
  Ti  Ti125     1.0  0.06603773604776815  0.9320754714937244  0.041509434087168555  1.0000
  Ti  Ti126     1.0  0.04716981173624234  0.9943396222141505  0.08679245309135239  1.0000
  Ti  Ti127     1.0  0.13207547209553624  0.8641509429874489  0.08301886817433705  1.0000
  Ti  Ti128     1.0  0.11320754778401054  0.9264150937078751  0.12830188717852087  1.0000
  Ti  Ti129     1.0  0.19811320814330416  0.7962264144811728  0.12452830226150555  1.0000
  Ti  Ti130     1.0  0.17924528383177843  0.8584905652015986  0.16981132126568943  1.0000
  Ti  Ti131     1.0  0.26415094419107243  0.7283018859748971  0.1660377363486741  1.0000
  Ti  Ti132     1.0  0.24528301987954648  0.7905660366953232  0.21132075535285788  1.0000
  Ti  Ti133     1.0  0.3301886802388401  0.6603773574686211  0.20754717043584256  1.0000
  Ti  Ti134     1.0  0.3113207559273148  0.7226415081890477  0.2528301894400264  1.0000
  Ti  Ti135     1.0  0.9528301892211859  0.9056603768010659  0.11320754751045962  1.0000
  Ti  Ti136     1.0  0.9339622649096601  0.9679245275214929  0.15849056651464344  1.0000
  Ti  Ti137     1.0  0.01886792526895386  0.8377358482947903  0.15471698159762814  1.0000
  Ti  Ti138     1.0  9.57428050823491e-10  0.8999999990152169  0.20000000060181194  1.0000
  Ti  Ti139     1.0  0.084905661316722  0.7698113197885145  0.19622641568479673  1.0000
  Ti  Ti140     1.0  0.0660377370051964  0.832075470508941  0.24150943468898042  1.0000
  Ti  Ti141     1.0  0.15094339736449  0.7018867912822389  0.23773584977196524  1.0000
  Ti  Ti142     1.0  0.13207547305296422  0.7641509420026651  0.283018868776149  1.0000
  Ti  Ti143     1.0  0.21698113341225816  0.6339622627759628  0.27924528385913366  1.0000
  Ti  Ti144     1.0  0.19811320910073227  0.6962264134963891  0.3245283028633175  1.0000
  Ti  Ti145     1.0  0.2830188694600261  0.566037734269687  0.32075471794630234  1.0000
  Ti  Ti146     1.0  0.26415094514850035  0.6283018849901134  0.3660377369504861  1.0000
  Ti  Ti147     1.0  0.9056603784423717  0.8113207536021319  0.22641509502091925  1.0000
  Ti  Ti148     1.0  0.8867924541308457  0.8735849043225586  0.2716981140251031  1.0000
  Ti  Ti149     1.0  0.9716981144901393  0.7433962250958566  0.26792452910808773  1.0000
  Ti  Ti150     1.0  0.9528301901786139  0.8056603758162829  0.3132075481122717  1.0000
  Ti  Ti151     1.0  0.03773585053790772  0.6754716965895803  0.3094339631952563  1.0000
  Ti  Ti152     1.0  0.018867926226382115  0.7377358473100072  0.35471698219944015  1.0000
  Ti  Ti153     1.0  0.10377358658567566  0.6075471680833048  0.3509433972824247  1.0000
  Ti  Ti154     1.0  0.08490566227414992  0.669811318803731  0.3962264162866086  1.0000
  Ti  Ti155     1.0  0.1698113226334436  0.5396226395770288  0.39245283136959325  1.0000
  Ti  Ti156     1.0  0.858490567663557  0.7169811304031977  0.33962264253137886  1.0000
  Ti  Ti157     1.0  0.8396226433520317  0.7792452811236247  0.38490566153556277  1.0000
  Ti  Ti158     1.0  0.9245283037113253  0.6490566018969225  0.3811320766185473  1.0000
  Ti  Ti159     1.0  0.9056603793997997  0.711320752617349  0.4264150956227312  1.0000
  Ti  Ti160     1.0  0.9905660397590937  0.5811320733906467  0.42264151070571604  1.0000
  Ti  Ti161     1.0  0.8113207568847436  0.6226415072042638  0.4528301900418386  1.0000
  Ti  Ti162     1.0  0.3867924531734175  0.973584905307342  0.07169811342329109  1.0000
  Ti  Ti163     1.0  0.36792452886189186  0.03584905602776853  0.11698113242747489  1.0000
  Ti  Ti164     1.0  0.2075471702990671  0.015094339120959541  0.10188679275941358  1.0000
  Ti  Ti165     1.0  0.18867924598754135  0.07735848984138592  0.14716981176359745  1.0000
  Ti  Ti166     1.0  0.2735849063468353  0.947169810614684  0.14339622684658213  1.0000
  Ti  Ti167     1.0  0.25471698203530924  0.009433961335110024  0.18867924585076595  1.0000
  Ti  Ti168     1.0  0.3396226423946033  0.8792452821084079  0.18490566093375074  1.0000
  Ti  Ti169     1.0  0.3207547180830777  0.9415094328288343  0.23018867993793457  1.0000
  Ti  Ti170     1.0  0.09433962347248487  0.9886792444283012  0.17358490618270475  1.0000
  Ti  Ti171     1.0  0.07547169916095921  0.05094339514872799  0.21886792518688858  1.0000
  Ti  Ti172     1.0  0.1603773595202529  0.9207547159220252  0.21509434026987329  1.0000
  Ti  Ti173     1.0  0.1415094352087274  0.9830188666424516  0.26037735927405714  1.0000
  Ti  Ti174     1.0  0.22641509556802095  0.8528301874157495  0.25660377435704174  1.0000
  Ti  Ti175     1.0  0.20754717125649536  0.9150943381361762  0.30188679336122565  1.0000
  Ti  Ti176     1.0  0.29245283161578906  0.784905658909474  0.2981132084442103  1.0000
  Ti  Ti177     1.0  0.27358490730426355  0.8471698096299005  0.34339622744839415  1.0000
  Ti  Ti178     1.0  0.9150943405981344  0.030188678241918985  0.20377358551882727  1.0000
  Ti  Ti179     1.0  0.8962264162866086  0.09245282896234572  0.2490566045230111  1.0000
  Ti  Ti180     1.0  0.9811320766459026  0.9622641497356433  0.24528301960599574  1.0000
  Ti  Ti181     1.0  0.9622641523343768  0.024528300456069765  0.29056603861017966  1.0000
  Ti  Ti182     1.0  0.04716981269367052  0.8943396212293675  0.28679245369316425  1.0000
  Ti  Ti183     1.0  0.028301888382145056  0.9566037719497941  0.33207547269734816  1.0000
  Ti  Ti184     1.0  0.1132075487414386  0.8264150927230912  0.32830188778033287  1.0000
  Ti  Ti185     1.0  0.09433962442991313  0.8886792434435181  0.3735849067845167  1.0000
  Ti  Ti186     1.0  0.17924528478920682  0.7584905642168159  0.3698113218675013  1.0000
  Ti  Ti187     1.0  0.16037736047768106  0.8207547149372425  0.4150943408716851  1.0000
  Ti  Ti188     1.0  0.24528302083697529  0.6905660357105401  0.41132075595466994  1.0000
  Ti  Ti189     1.0  0.8679245298193199  0.935849055042985  0.3169811330292869  1.0000
  Ti  Ti190     1.0  0.8490566055077944  0.9981132057634114  0.36226415203347073  1.0000
  Ti  Ti191     1.0  0.9339622658670885  0.8679245265367087  0.3584905671164555  1.0000
  Ti  Ti192     1.0  0.9150943415555626  0.9301886772571356  0.40377358612063924  1.0000
  Ti  Ti193     1.0  1.914856238221069e-09  0.7999999980304333  0.4000000012036239  1.0000
  Ti  Ti194     1.0  0.9811320776033305  0.86226414875086  0.44528302020780774  1.0000
  Ti  Ti195     1.0  0.06603773796262513  0.7320754695241578  0.4415094352907927  1.0000
  Ti  Ti196     1.0  0.8207547190405059  0.841509431844051  0.43018868053974657  1.0000
  Ti  Ti197     1.0  0.8018867947289803  0.9037735825644776  0.4754716995439305  1.0000
  Ti  Ti198     1.0  0.886792455088274  0.7735849033377752  0.471698114626915  1.0000
  Ti  Ti199     1.0  0.41509433964070636  0.13018867922670233  0.003773584917015385  1.0000
  Ti  Ti200     1.0  0.23584905676635579  0.17169811304031982  0.03396226425313783  1.0000
  Ti  Ti201     1.0  0.9905660378442376  0.2811320753602128  0.022641509502092073  1.0000
  Ti  Ti202     1.0  0.23584905772378384  0.0716981120555369  0.23396226485494992  1.0000
  Ti  Ti203     1.0  0.21698113341225803  0.13396226277596304  0.2792452838591337  1.0000
  Ti  Ti204     1.0  0.3018867937715519  0.0037735835492611527  0.2754716989421185  1.0000
  Ti  Ti205     1.0  0.2830188694600263  0.06603773426968729  0.32075471794630234  1.0000
  Ti  Ti206     1.0  0.12264151089720148  0.04528301736287867  0.3056603782782409  1.0000
  Ti  Ti207     1.0  0.1037735865856758  0.1075471680833053  0.3509433972824247  1.0000
  Ti  Ti208     1.0  0.1886792469449695  0.9773584888566024  0.34716981236540945  1.0000
  Ti  Ti209     1.0  0.16981132263344387  0.039622639577029356  0.3924528313695933  1.0000
  Ti  Ti210     1.0  0.25471698299273743  0.9094339603503269  0.38867924645257795  1.0000
  Ti  Ti211     1.0  0.23584905868121167  0.971698111070754  0.43396226545676175  1.0000
  Ti  Ti212     1.0  0.9433962280228513  0.0867924511764961  0.33584905761436357  1.0000
  Ti  Ti213     1.0  0.9245283037113253  0.14905660189692252  0.3811320766185473  1.0000
  Ti  Ti214     1.0  0.009433964070619177  0.018867922670220246  0.377358491701532  1.0000
  Ti  Ti215     1.0  0.9905660397590937  0.08113207339064649  0.422641510705716  1.0000
  Ti  Ti216     1.0  0.07547170011838725  0.9509433941639446  0.4188679257887004  1.0000
  Ti  Ti217     1.0  0.05660377580686165  0.013207544884371028  0.4641509447928843  1.0000
  Ti  Ti218     1.0  0.14150943616615533  0.8830188656576681  0.46037735987586914  1.0000
  Ti  Ti219     1.0  0.8301886811962687  0.060377356483837866  0.4075471710376546  1.0000
  Ti  Ti220     1.0  0.8113207568847433  0.1226415072042647  0.4528301900418384  1.0000
  Ti  Ti221     1.0  0.8962264172440372  0.9924528279775617  0.4490566051248232  1.0000
  Ti  Ti222     1.0  0.8773584929325114  0.05471697869798855  0.494339624129007  1.0000
  Ti  Ti223     1.0  0.9622641532918047  0.9245282994712863  0.49056603921199166  1.0000
  Ti  Ti224     1.0  0.7830188704174544  0.9660377332849035  0.5207547185481143  1.0000
  Ti  Ti225     1.0  0.24528301892211862  0.3905660376801065  0.011320754751045976  1.0000
  Ti  Ti226     1.0  2.2193289073653885e-16  0.49999999999999994  4.535290436826158e-17  1.0000
  Ti  Ti227     1.0  0.06603773604776832  0.43207547149372383  0.04150943408716861  1.0000
  Ti  Ti228     1.0  0.2641509451485005  0.12830188499011352  0.36603773695048614  1.0000
  Ti  Ti229     1.0  0.150943398321918  0.10188679029745559  0.43773585037377716  1.0000
  Ti  Ti230     1.0  0.13207547401039213  0.16415094101788152  0.483018869377961  1.0000
  Ti  Ti231     1.0  0.21698113436968622  0.03396226179117974  0.47924528446094555  1.0000
  Ti  Ti232     1.0  0.9716981154475678  0.1433962241110733  0.46792452970989956  1.0000
  Ti  Ti233     1.0  0.9528301911360421  0.20566037483149874  0.5132075487140835  1.0000
  Ti  Ti234     1.0  0.037735851495335634  0.07547169560479756  0.5094339637970681  1.0000
  Ti  Ti235     1.0  0.7924528325732172  0.18490565792469063  0.4981132090460222  1.0000
  Ti  Ti236     1.0  0.8584905686209859  0.11698112941841499  0.539622643133191  1.0000
  Ti  Ti237     1.0  0.3207547171256495  0.5415094338136174  0.030188679336122685  1.0000
  Ti  Ti238     1.0  0.07547169820353127  0.6509433961335104  0.018867924585076745  1.0000
  Ti  Ti239     1.0  0.3301886792814126  0.7603773584534044  0.007547169834030691  1.0000
  Ti  Ti240     1.0  0.15094339640706209  0.8018867922670218  0.03773584917015333  1.0000
  Ti  Ti241     1.0  0.40566037748494294  0.9113207545869151  0.026415094419107173  1.0000
  Ti  Ti242     1.0  0.1603773585628246  0.0207547169068086  0.015094339668061289  1.0000
  Ti  Ti243     1.0  0.49999999999999983  6.2781912324567776e-18  1.1338226092065395e-17  1.0000
  Ti  Ti244     1.0  0.4811320756884742  0.062264150720426445  0.04528301900418386  1.0000
  Ti  Ti245     1.0  0.8207547171256494  0.04150943381361781  0.030188679336122615  1.0000
  Ti  Ti246     1.0  0.8018867928141235  0.1037735845340442  0.07547169834030644  1.0000
  Ti  Ti247     1.0  0.5754716982035308  0.15094339613351104  0.01886792458507662  1.0000
  Ti  Ti248     1.0  0.5566037738920052  0.2132075468539375  0.06415094358926046  1.0000
  Ti  Ti249     1.0  0.6415094342512989  0.08301886762723527  0.06037735867224516  1.0000
  Ti  Ti250     1.0  0.6226415099397733  0.1452830183476617  0.10566037767642901  1.0000
  Ti  Ti251     1.0  0.4622641513769485  0.12452830144085282  0.09056603800836771  1.0000
  Ti  Ti252     1.0  0.44339622706542275  0.18679245216127935  0.13584905701255146  1.0000
  Ti  Ti253     1.0  0.5283018874247167  0.05660377293457702  0.13207547209553624  1.0000
  Ti  Ti254     1.0  0.509433963113191  0.1188679236550034  0.17735849109972007  1.0000
  Ti  Ti255     1.0  0.8301886792814122  0.2603773584534047  0.007547169834030702  1.0000
  Ti  Ti256     1.0  0.8113207549698864  0.3226415091738312  0.05283018883821454  1.0000
  Ti  Ti257     1.0  0.8962264153291802  0.19245282994712876  0.04905660392119921  1.0000
  Ti  Ti258     1.0  0.8773584910176545  0.25471698066755516  0.09433962292538302  1.0000
  Ti  Ti259     1.0  0.6509433964070619  0.3018867922670221  0.03773584917015322  1.0000
  Ti  Ti260     1.0  0.6320754720955362  0.36415094298744854  0.08301886817433705  1.0000
  Ti  Ti261     1.0  0.71698113245483  0.23396226376074633  0.07924528325732172  1.0000
  Ti  Ti262     1.0  0.6981132081433042  0.29622641448117265  0.1245283022615056  1.0000
  Ti  Ti263     1.0  0.783018868502598  0.16603773525447071  0.12075471734449024  1.0000
  Ti  Ti264     1.0  0.7641509441910721  0.22830188597489698  0.16603773634867408  1.0000
  Ti  Ti265     1.0  0.8490566045503659  0.09811320674819468  0.16226415143165884  1.0000
  Ti  Ti266     1.0  0.8301886802388401  0.16037735746862128  0.20754717043584256  1.0000
  Ti  Ti267     1.0  0.4716981135327113  0.34339622608063963  0.06792452850627577  1.0000
  Ti  Ti268     1.0  0.4528301892211856  0.4056603768010659  0.11320754751045967  1.0000
  Ti  Ti269     1.0  0.5377358495804796  0.27547169757436385  0.1094339625934443  1.0000
  Ti  Ti270     1.0  0.5188679252689539  0.33773584829479036  0.15471698159762814  1.0000
  Ti  Ti271     1.0  0.6037735856282476  0.2075471690680881  0.15094339668061282  1.0000
  Ti  Ti272     1.0  0.584905661316722  0.26981131978851447  0.19622641568479668  1.0000
  Ti  Ti273     1.0  0.6698113216760156  0.1396226405618123  0.1924528307677813  1.0000
  Ti  Ti274     1.0  0.6509433973644901  0.2018867912822388  0.2377358497719652  1.0000
  Ti  Ti275     1.0  0.42452830275389725  0.24905660288170572  0.18113207601673542  1.0000
  Ti  Ti276     1.0  0.4056603784423717  0.31132075360213174  0.22641509502091933  1.0000
  Ti  Ti277     1.0  0.4905660388016652  0.18113207437542989  0.22264151010390393  1.0000
  Ti  Ti278     1.0  0.47169811449013954  0.24339622509585632  0.26792452910808773  1.0000
  Ti  Ti279     1.0  0.5566037748494332  0.11320754586915392  0.2641509441910725  1.0000
  Ti  Ti280     1.0  0.37735849197508303  0.15471697968277154  0.2943396235271951  1.0000
  Ti  Ti281     1.0  0.9056603774849429  0.4113207545869156  0.02641509441910728  1.0000
  Ti  Ti282     1.0  0.8867924531734176  0.4735849053073421  0.07169811342329109  1.0000
  Ti  Ti283     1.0  0.6603773585628246  0.5207547169068091  0.015094339668061335  1.0000
  Ti  Ti284     1.0  0.6415094342512989  0.5830188676272353  0.060377358672245196  1.0000
  Ti  Ti285     1.0  0.7264150946105928  0.45283018840053296  0.05660377375522987  1.0000
  Ti  Ti286     1.0  0.707547170299067  0.5150943391209594  0.10188679275941372  1.0000
  Ti  Ti287     1.0  0.7924528306583608  0.38490565989425735  0.09811320784239837  1.0000
  Ti  Ti288     1.0  0.773584906346835  0.4471698106146837  0.1433962268465822  1.0000
  Ti  Ti289     1.0  0.8584905667061288  0.3169811313879816  0.13962264192956686  1.0000
  Ti  Ti290     1.0  0.8396226423946032  0.3792452821084079  0.18490566093375077  1.0000
  Ti  Ti291     1.0  0.4811320756884742  0.5622641507204266  0.04528301900418387  1.0000
  Ti  Ti292     1.0  0.4622641513769485  0.6245283014408529  0.09056603800836768  1.0000
  Ti  Ti293     1.0  0.5471698117362425  0.4943396222141507  0.0867924530913524  1.0000
  Ti  Ti294     1.0  0.5283018874247168  0.5566037729345771  0.13207547209553624  1.0000
  Ti  Ti295     1.0  0.6132075477840105  0.42641509370787484  0.1283018871785209  1.0000
  Ti  Ti296     1.0  0.5943396234724848  0.4886792444283014  0.17358490618270475  1.0000
  Ti  Ti297     1.0  0.6792452838317786  0.3584905652015991  0.16981132126568949  1.0000
  Ti  Ti298     1.0  0.6603773595202526  0.42075471592202546  0.21509434026987329  1.0000
  Ti  Ti299     1.0  0.7452830198795468  0.2905660366953233  0.21132075535285802  1.0000
  Ti  Ti300     1.0  0.7264150955680211  0.35283018741574995  0.25660377435704174  1.0000
  Ti  Ti301     1.0  0.8113207559273145  0.2226415081890478  0.25283018944002644  1.0000
  Ti  Ti302     1.0  0.43396226490965967  0.4679245275214925  0.15849056651464344  1.0000
  Ti  Ti303     1.0  0.4150943405981345  0.530188678241919  0.20377358551882735  1.0000
  Ti  Ti304     1.0  0.5000000009574282  0.399999999015217  0.20000000060181197  1.0000
  Ti  Ti305     1.0  0.4811320766459024  0.46226414973564295  0.2452830196059959  1.0000
  Ti  Ti306     1.0  0.5660377370051962  0.3320754705089411  0.2415094346889805  1.0000
  Ti  Ti307     1.0  0.5471698126936707  0.3943396212293672  0.2867924536931644  1.0000
  Ti  Ti308     1.0  0.6320754730529642  0.2641509420026649  0.28301886877614907  1.0000
  Ti  Ti309     1.0  0.3867924541308458  0.3735849043225588  0.2716981140251031  1.0000
  Ti  Ti310     1.0  0.3679245298193199  0.43584905504298505  0.3169811330292869  1.0000
  Ti  Ti311     1.0  0.452830190178614  0.30566037581628286  0.3132075481122715  1.0000
  Ti  Ti312     1.0  0.9150943396407059  0.6301886792267023  0.0037735849170153356  1.0000
  Ti  Ti313     1.0  0.8962264153291802  0.6924528299471288  0.04905660392119921  1.0000
  Ti  Ti314     1.0  0.7358490567663557  0.6716981130403201  0.03396226425313794  1.0000
  Ti  Ti315     1.0  0.71698113245483  0.7339622637607466  0.07924528325732175  1.0000
  Ti  Ti316     1.0  0.8018867928141235  0.603773584534044  0.07547169834030643  1.0000
  Ti  Ti317     1.0  0.783018868502598  0.6660377352544707  0.12075471734449028  1.0000
  Ti  Ti318     1.0  0.8679245288618915  0.5358490560277682  0.11698113242747496  1.0000
  Ti  Ti319     1.0  0.8490566045503659  0.5981132067481949  0.16226415143165876  1.0000
  Ti  Ti320     1.0  0.49056603784423713  0.7811320753602135  0.02264150950209196  1.0000
  Ti  Ti321     1.0  0.47169811353271135  0.84339622608064  0.06792452850627577  1.0000
  Ti  Ti322     1.0  0.556603773892005  0.7132075468539374  0.06415094358926043  1.0000
  Ti  Ti323     1.0  0.5377358495804796  0.7754716975743638  0.10943396259344436  1.0000
  Ti  Ti324     1.0  0.6226415099397733  0.6452830183476614  0.105660377676429  1.0000
  Ti  Ti325     1.0  0.6037735856282478  0.7075471690680883  0.15094339668061285  1.0000
  Ti  Ti326     1.0  0.6886792459875414  0.5773584898413859  0.14716981176359753  1.0000
  Ti  Ti327     1.0  0.6698113216760158  0.6396226405618125  0.19245283076778147  1.0000
  Ti  Ti328     1.0  0.7547169820353096  0.5094339613351102  0.18867924585076598  1.0000
  Ti  Ti329     1.0  0.7358490577237837  0.5716981120555368  0.23396226485494984  1.0000
  Ti  Ti330     1.0  0.8207547180830774  0.44150943282883426  0.23018867993793457  1.0000
  Ti  Ti331     1.0  0.8018867937715519  0.5037735835492608  0.2754716989421185  1.0000
  Ti  Ti332     1.0  0.44339622706542287  0.6867924521612793  0.13584905701255154  1.0000
  Ti  Ti333     1.0  0.4245283027538972  0.7490566028817056  0.1811320760167354  1.0000
  Ti  Ti334     1.0  0.509433963113191  0.6188679236550033  0.17735849109972007  1.0000
  Ti  Ti335     1.0  0.4905660388016652  0.6811320743754299  0.22264151010390393  1.0000
  Ti  Ti336     1.0  0.5754716991609591  0.5509433951487278  0.21886792518688858  1.0000
  Ti  Ti337     1.0  0.5566037748494335  0.6132075458691538  0.2641509441910725  1.0000
  Ti  Ti338     1.0  0.641509435208727  0.48301886664245186  0.2603773592740572  1.0000
  Ti  Ti339     1.0  0.6226415108972015  0.5452830173628779  0.305660378278241  1.0000
  Ti  Ti340     1.0  0.7075471712564954  0.41509433813617613  0.3018867933612257  1.0000
  Ti  Ti341     1.0  0.3962264162866084  0.5924528289623455  0.2490566045230111  1.0000
  Ti  Ti342     1.0  0.3773584919750828  0.6547169796827712  0.294339623527195  1.0000
  Ti  Ti343     1.0  0.46226415233437695  0.5245283004560697  0.29056603861017966  1.0000
  Ti  Ti344     1.0  0.44339622802285095  0.5867924511764957  0.33584905761436357  1.0000
  Ti  Ti345     1.0  0.5283018883821449  0.45660377194979396  0.33207547269734816  1.0000
  Ti  Ti346     1.0  0.3490566055077943  0.49811320576341117  0.36226415203347073  1.0000
  Ti  Ti347     1.0  0.7452830189221183  0.8905660376801068  0.011320754751045985  1.0000
  Ti  Ti348     1.0  0.7264150946105927  0.9528301884005335  0.05660377375522987  1.0000
  Ti  Ti349     1.0  0.8113207549698864  0.8226415091738312  0.05283018883821452  1.0000
  Ti  Ti350     1.0  0.7924528306583608  0.8849056598942573  0.0981132078423984  1.0000
  Ti  Ti351     1.0  0.8773584910176546  0.7547169806675552  0.09433962292538305  1.0000
  Ti  Ti352     1.0  0.8584905667061289  0.8169811313879815  0.13962264192956694  1.0000
  Ti  Ti353     1.0  0.5660377360477681  0.9320754714937244  0.04150943408716854  1.0000
  Ti  Ti354     1.0  0.5471698117362424  0.9943396222141507  0.08679245309135243  1.0000
  Ti  Ti355     1.0  0.6320754720955362  0.8641509429874489  0.08301886817433708  1.0000
  Ti  Ti356     1.0  0.6132075477840108  0.9264150937078752  0.12830188717852095  1.0000
  Ti  Ti357     1.0  0.6981132081433042  0.7962264144811728  0.12452830226150555  1.0000
  Ti  Ti358     1.0  0.6792452838317786  0.8584905652015992  0.16981132126568946  1.0000
  Ti  Ti359     1.0  0.7641509441910723  0.7283018859748971  0.16603773634867408  1.0000
  Ti  Ti360     1.0  0.7452830198795464  0.7905660366953233  0.21132075535285802  1.0000
  Ti  Ti361     1.0  0.8301886802388401  0.6603773574686215  0.20754717043584256  1.0000
  Ti  Ti362     1.0  0.8113207559273145  0.722641508189048  0.25283018944002644  1.0000
  Ti  Ti363     1.0  0.4528301892211857  0.9056603768010659  0.11320754751045965  1.0000
  Ti  Ti364     1.0  0.43396226490966  0.9679245275214927  0.15849056651464344  1.0000
  Ti  Ti365     1.0  0.5188679252689539  0.8377358482947903  0.15471698159762817  1.0000
  Ti  Ti366     1.0  0.5000000009574281  0.899999999015217  0.20000000060181197  1.0000
  Ti  Ti367     1.0  0.584905661316722  0.7698113197885148  0.1962264156847967  1.0000
  Ti  Ti368     1.0  0.5660377370051961  0.832075470508941  0.24150943468898037  1.0000
  Ti  Ti369     1.0  0.6509433973644899  0.7018867912822389  0.2377358497719652  1.0000
  Ti  Ti370     1.0  0.6320754730529642  0.7641509420026651  0.283018868776149  1.0000
  Ti  Ti371     1.0  0.716981133412258  0.6339622627759629  0.2792452838591337  1.0000
  Ti  Ti372     1.0  0.6981132091007323  0.6962264134963895  0.3245283028633175  1.0000
  Ti  Ti373     1.0  0.7830188694600261  0.5660377342696871  0.32075471794630234  1.0000
  Ti  Ti374     1.0  0.4056603784423717  0.8113207536021321  0.2264150950209193  1.0000
  Ti  Ti375     1.0  0.3867924541308457  0.8735849043225584  0.2716981140251031  1.0000
  Ti  Ti376     1.0  0.4716981144901393  0.7433962250958566  0.26792452910808773  1.0000
  Ti  Ti377     1.0  0.4528301901786138  0.8056603758162826  0.31320754811227164  1.0000
  Ti  Ti378     1.0  0.5377358505379078  0.6754716965895808  0.3094339631952563  1.0000
  Ti  Ti379     1.0  0.5188679262263821  0.7377358473100071  0.35471698219944026  1.0000
  Ti  Ti380     1.0  0.6037735865856755  0.6075471680833051  0.3509433972824247  1.0000
  Ti  Ti381     1.0  0.35849056766355725  0.716981130403198  0.3396226425313789  1.0000
  Ti  Ti382     1.0  0.33962264335203163  0.7792452811236247  0.38490566153556277  1.0000
  Ti  Ti383     1.0  0.4245283037113253  0.6490566018969227  0.3811320766185474  1.0000
  Ti  Ti384     1.0  0.8867924531734177  0.9735849053073422  0.07169811342329119  1.0000
  Ti  Ti385     1.0  0.867924528861892  0.03584905602776875  0.11698113242747496  1.0000
  Ti  Ti386     1.0  0.7075471702990671  0.015094339120959244  0.10188679275941363  1.0000
  Ti  Ti387     1.0  0.6886792459875415  0.07735848984138588  0.14716981176359753  1.0000
  Ti  Ti388     1.0  0.7735849063468352  0.947169810614684  0.14339622684658213  1.0000
  Ti  Ti389     1.0  0.7547169820353093  0.009433961335110323  0.1886792458507661  1.0000
  Ti  Ti390     1.0  0.8396226423946034  0.8792452821084084  0.1849056609337508  1.0000
  Ti  Ti391     1.0  0.820754718083078  0.9415094328288347  0.23018867993793465  1.0000
  Ti  Ti392     1.0  0.5943396234724847  0.9886792444283012  0.17358490618270478  1.0000
  Ti  Ti393     1.0  0.5754716991609592  0.05094339514872794  0.2188679251868886  1.0000
  Ti  Ti394     1.0  0.6603773595202529  0.9207547159220252  0.2150943402698734  1.0000
  Ti  Ti395     1.0  0.641509435208727  0.9830188666424519  0.2603773592740571  1.0000
  Ti  Ti396     1.0  0.7264150955680211  0.8528301874157498  0.25660377435704174  1.0000
  Ti  Ti397     1.0  0.7075471712564954  0.9150943381361762  0.3018867933612257  1.0000
  Ti  Ti398     1.0  0.7924528316157886  0.7849056589094735  0.2981132084442103  1.0000
  Ti  Ti399     1.0  0.7735849073042635  0.8471698096299003  0.34339622744839415  1.0000
  Ti  Ti400     1.0  0.41509434059813427  0.030188678241918735  0.20377358551882727  1.0000
  Ti  Ti401     1.0  0.3962264162866087  0.09245282896234541  0.24905660452301115  1.0000
  Ti  Ti402     1.0  0.48113207664590246  0.9622641497356433  0.24528301960599583  1.0000
  Ti  Ti403     1.0  0.4622641523343769  0.024528300456069466  0.2905660386101797  1.0000
  Ti  Ti404     1.0  0.5471698126936705  0.8943396212293675  0.28679245369316425  1.0000
  Ti  Ti405     1.0  0.528301888382145  0.9566037719497941  0.33207547269734816  1.0000
  Ti  Ti406     1.0  0.6132075487414386  0.8264150927230914  0.3283018877803328  1.0000
  Ti  Ti407     1.0  0.5943396244299131  0.8886792434435183  0.3735849067845167  1.0000
  Ti  Ti408     1.0  0.6792452847892069  0.7584905642168157  0.36981132186750143  1.0000
  Ti  Ti409     1.0  0.6603773604776809  0.8207547149372427  0.4150943408716851  1.0000
  Ti  Ti410     1.0  0.3679245298193199  0.935849055042985  0.3169811330292869  1.0000
  Ti  Ti411     1.0  0.3490566055077943  0.9981132057634112  0.3622641520334708  1.0000
  Ti  Ti412     1.0  0.43396226586708814  0.8679245265367087  0.3584905671164555  1.0000
  Ti  Ti413     1.0  0.4150943415555625  0.930188677257136  0.40377358612063924  1.0000
  Ti  Ti414     1.0  0.500000001914856  0.7999999980304335  0.4000000012036239  1.0000
  Ti  Ti415     1.0  0.3207547190405059  0.8415094318440512  0.43018868053974657  1.0000
  Ti  Ti416     1.0  0.9150943396407064  0.13018867922670227  0.0037735849170154076  1.0000
  Ti  Ti417     1.0  0.7358490567663558  0.17169811304031984  0.033962264253137864  1.0000
  Ti  Ti418     1.0  0.4905660378442373  0.28113207536021284  0.022641509502092098  1.0000
  Ti  Ti419     1.0  0.7358490577237837  0.0716981120555369  0.23396226485494992  1.0000
  Ti  Ti420     1.0  0.8018867937715517  0.003773583549260954  0.2754716989421185  1.0000
  Ti  Ti421     1.0  0.7830188694600262  0.06603773426968769  0.32075471794630234  1.0000
  Ti  Ti422     1.0  0.6226415108972013  0.04528301736287867  0.30566037827824094  1.0000
  Ti  Ti423     1.0  0.6037735865856756  0.10754716808330511  0.3509433972824247  1.0000
  Ti  Ti424     1.0  0.6886792469449693  0.9773584888566021  0.3471698123654095  1.0000
  Ti  Ti425     1.0  0.6698113226334437  0.039622639577029155  0.3924528313695933  1.0000
  Ti  Ti426     1.0  0.7547169829927374  0.9094339603503268  0.38867924645257795  1.0000
  Ti  Ti427     1.0  0.7358490586812118  0.9716981110707542  0.43396226545676175  1.0000
  Ti  Ti428     1.0  0.44339622802285095  0.0867924511764962  0.3358490576143635  1.0000
  Ti  Ti429     1.0  0.42452830371132527  0.14905660189692282  0.38113207661854726  1.0000
  Ti  Ti430     1.0  0.5094339640706191  0.018867922670220447  0.37735849170153196  1.0000
  Ti  Ti431     1.0  0.49056603975909374  0.08113207339064628  0.42264151070571604  1.0000
  Ti  Ti432     1.0  0.5754717001183874  0.9509433941639447  0.4188679257887005  1.0000
  Ti  Ti433     1.0  0.5566037758068615  0.013207544884371127  0.4641509447928844  1.0000
  Ti  Ti434     1.0  0.33018868119626865  0.06037735648383797  0.4075471710376546  1.0000
  Ti  Ti435     1.0  0.31132075688474337  0.1226415072042641  0.45283019004183866  1.0000
  Ti  Ti436     1.0  0.3962264172440368  0.9924528279775622  0.44905660512482304  1.0000
  Ti  Ti437     1.0  0.7452830189221185  0.39056603768010667  0.011320754751046021  1.0000
  Ti  Ti438     1.0  0.5000000000000003  0.5  6.802935655239237e-17  1.0000
  Ti  Ti439     1.0  0.5660377360477682  0.4320754714937239  0.04150943408716863  1.0000
  Ti  Ti440     1.0  0.7641509451485006  0.12830188499011352  0.36603773695048614  1.0000
  Ti  Ti441     1.0  0.650943398321918  0.10188679029745609  0.4377358503737772  1.0000
  Ti  Ti442     1.0  0.6320754740103917  0.16415094101788183  0.48301886937796096  1.0000
  Ti  Ti443     1.0  0.471698115447568  0.1433962241110735  0.4679245297098997  1.0000
  Ti  Ti444     1.0  0.2924528325732171  0.18490565792469102  0.4981132090460222  1.0000
  Ti  Ti445     1.0  0.8207547171256494  0.5415094338136175  0.030188679336122706  1.0000
  Ti  Ti446     1.0  0.5754716982035313  0.6509433961335105  0.018867924585076776  1.0000
  Ti  Ti447     1.0  0.8301886792814128  0.7603773584534049  0.007547169834030745  1.0000
  Ti  Ti448     1.0  0.650943396407062  0.8018867922670218  0.03773584917015333  1.0000
  Ti  Ti449     1.0  0.9056603774849428  0.9113207545869151  0.02641509441910723  1.0000
  Ti  Ti450     1.0  0.6603773585628245  0.020754716906808735  0.015094339668061335  1.0000
  Ti  Ti451     1.0  0.7594339621557629  0.21886792463978685  0.4773584904979081  1.0000
  Ti  Ti452     1.0  0.6745283017964692  0.3490566038664886  0.4811320754149235  1.0000
  Ti  Ti453     1.0  0.9481132071858762  0.39622641546595594  0.42452830165969363  1.0000
  Ti  Ti454     1.0  0.8632075468265824  0.5264150946926583  0.4283018865767089  1.0000
  Ti  Ti455     1.0  0.8349056603592937  0.36981132077329765  0.4962264150829847  1.0000
  Ti  Ti456     1.0  0.7500000000000001  0.4999999999999996  0.5000000000000002  1.0000
  Ti  Ti457     1.0  0.7688679243115257  0.43773584927957326  0.45471698099581626  1.0000
  Ti  Ti458     1.0  0.6839622639522317  0.5679245285062758  0.45849056591283144  1.0000
  Ti  Ti459     1.0  0.5896226414371751  0.4792452830931911  0.4849056603319387  1.0000
  Ti  Ti460     1.0  0.5047169810778815  0.6094339623198934  0.48867924524895406  1.0000
  Ti  Ti461     1.0  0.5235849053894073  0.5471698115994668  0.44339622624477026  1.0000
  Ti  Ti462     1.0  0.43867924503011313  0.6773584908261692  0.44716981116178556  1.0000
  Ti  Ti463     1.0  0.08962264143717535  0.4792452830931909  0.4849056603319388  1.0000
  Ti  Ti464     1.0  0.004716981077881128  0.6094339623198934  0.488679245248954  1.0000
  Ti  Ti465     1.0  0.02358490538940714  0.5471698115994672  0.4433962262447702  1.0000
  Ti  Ti466     1.0  0.9386792450301132  0.6773584908261692  0.44716981116178556  1.0000
  Ti  Ti467     1.0  0.9103773585628249  0.5207547169068087  0.5150943396680614  1.0000
  Ti  Ti468     1.0  0.825471698203531  0.6509433961335112  0.5188679245850766  1.0000
  Ti  Ti469     1.0  0.8443396225150565  0.5886792454130846  0.47358490558089283  1.0000
  Ti  Ti470     1.0  0.7594339621557625  0.7188679246397869  0.4773584904979081  1.0000
  Ti  Ti471     1.0  0.7783018864672886  0.6566037739193604  0.4320754714937243  1.0000
  Ti  Ti472     1.0  0.6933962261079948  0.7867924531460625  0.4358490564107396  1.0000
  Ti  Ti473     1.0  0.7122641504195203  0.7245283024256362  0.39056603740655577  1.0000
  Ti  Ti474     1.0  0.6273584900602265  0.8547169816523383  0.39433962232357106  1.0000
  Ti  Ti475     1.0  0.7311320756884744  0.5622641507204266  0.5452830190041839  1.0000
  Ti  Ti476     1.0  0.64622641532918  0.6924528299471288  0.549056603921199  1.0000
  Ti  Ti477     1.0  0.6650943396407063  0.6301886792267022  0.5037735849170154  1.0000
  Ti  Ti478     1.0  0.5801886792814123  0.7603773584534046  0.5075471698340306  1.0000
  Ti  Ti479     1.0  0.599056603592938  0.698113207732978  0.46226415082984673  1.0000
  Ti  Ti480     1.0  0.5141509432336441  0.8283018869596801  0.4660377357468621  1.0000
  Ti  Ti481     1.0  0.5330188675451696  0.7660377362392541  0.42075471674267817  1.0000
  Ti  Ti482     1.0  0.4481132071858761  0.896226415465956  0.4245283016596936  1.0000
  Ti  Ti483     1.0  0.41981132071858757  0.7396226415465954  0.49245283016596936  1.0000
  Ti  Ti484     1.0  0.3349056603592936  0.8698113207732979  0.49622641508298454  1.0000
  Ti  Ti485     1.0  0.3537735846708195  0.8075471700528715  0.4509433960788008  1.0000
  Ti  Ti486     1.0  0.2688679243115257  0.9377358492795739  0.4547169809958161  1.0000
  Ti  Ti487     1.0  0.2877358486230514  0.8754716985591472  0.4094339619916323  1.0000
  Ti  Ti488     1.0  0.20283018826375745  0.005660377785849318  0.41320754690864747  1.0000
  Ti  Ti489     1.0  0.10849056574870068  0.9169811323727648  0.43962264132775475  1.0000
  Ti  Ti490     1.0  0.023584905389406732  0.04716981159946694  0.44339622624477  1.0000
  Ti  Ti491     1.0  0.1650943396407061  0.6301886792267024  0.5037735849170154  1.0000
  Ti  Ti492     1.0  0.08018867928141256  0.7603773584534042  0.5075471698340308  1.0000
  Ti  Ti493     1.0  0.051886792814123735  0.6037735845340442  0.5754716983403064  1.0000
  Ti  Ti494     1.0  0.9669811324548303  0.7339622637607461  0.5792452832573218  1.0000
  Ti  Ti495     1.0  0.9858490567663555  0.6716981130403198  0.533962264253138  1.0000
  Ti  Ti496     1.0  0.9009433964070618  0.801886792267022  0.5377358491701532  1.0000
  Ti  Ti497     1.0  0.9198113207185877  0.7396226415465956  0.49245283016596947  1.0000
  Ti  Ti498     1.0  0.8349056603592937  0.8698113207732978  0.4962264150829847  1.0000
  Ti  Ti499     1.0  0.8537735846708195  0.8075471700528715  0.4509433960788009  1.0000
  Ti  Ti500     1.0  0.7688679243115257  0.9377358492795735  0.45471698099581626  1.0000
  Ti  Ti501     1.0  0.8726415099397734  0.6452830183476616  0.605660377676429  1.0000
  Ti  Ti502     1.0  0.7877358495804793  0.775471697574364  0.6094339625934442  1.0000
  Ti  Ti503     1.0  0.8066037738920055  0.7132075468539373  0.5641509435892605  1.0000
  Ti  Ti504     1.0  0.7216981135327112  0.8433962260806396  0.5679245285062757  1.0000
  Ti  Ti505     1.0  0.7405660378442368  0.7811320753602131  0.5226415095020919  1.0000
  Ti  Ti506     1.0  0.6556603774849435  0.9113207545869153  0.5264150944191073  1.0000
  Ti  Ti507     1.0  0.6745283017964688  0.8490566038664888  0.4811320754149235  1.0000
  Ti  Ti508     1.0  0.589622641437175  0.9792452830931911  0.4849056603319387  1.0000
  Ti  Ti509     1.0  0.6084905657487005  0.916981132372765  0.43962264132775475  1.0000
  Ti  Ti510     1.0  0.5235849053894072  0.04716981159946674  0.44339622624477026  1.0000
  Ti  Ti511     1.0  0.5424528297009324  0.9849056608790404  0.3981132072405864  1.0000
  Ti  Ti512     1.0  0.457547169341639  0.11509434010574258  0.4018867921576017  1.0000
  Ti  Ti513     1.0  0.5613207549698865  0.8226415091738307  0.5528301888382144  1.0000
  Ti  Ti514     1.0  0.47641509461059284  0.9528301884005329  0.5566037737552297  1.0000
  Ti  Ti515     1.0  0.4952830189221184  0.8905660376801066  0.5113207547510459  1.0000
  Ti  Ti516     1.0  0.41037735856282476  0.02075471690680871  0.5150943396680613  1.0000
  Ti  Ti517     1.0  0.4292452828743504  0.9584905661863822  0.4698113206638774  1.0000
  Ti  Ti518     1.0  0.3443396225150565  0.08867924541308476  0.4735849055808926  1.0000
  Ti  Ti519     1.0  0.3632075468265824  0.02641509469265793  0.4283018865767089  1.0000
  Ti  Ti520     1.0  0.2783018864672883  0.1566037739193598  0.4320754714937243  1.0000
  Ti  Ti521     1.0  0.2971698107788141  0.09433962319893378  0.38679245248954036  1.0000
  Ti  Ti522     1.0  0.25000000000000006  9.932660844152788e-17  0.4999999999999999  1.0000
  Ti  Ti523     1.0  0.16509433964070638  0.130188679226702  0.5037735849170154  1.0000
  Ti  Ti524     1.0  0.18396226395223184  0.06792452850627585  0.45849056591283144  1.0000
  Ti  Ti525     1.0  0.09905660359293789  0.19811320773297822  0.4622641508298466  1.0000
  Ti  Ti526     1.0  0.11792452790446363  0.1358490570125517  0.4169811318256628  1.0000
  Ti  Ti527     1.0  0.9386792450301131  0.17735849082616922  0.4471698111617854  1.0000
  Ti  Ti528     1.0  0.30660377389200544  0.7132075468539373  0.5641509435892607  1.0000
  Ti  Ti529     1.0  0.22169811353271152  0.8433962260806396  0.5679245285062758  1.0000
  Ti  Ti530     1.0  0.12735849101765476  0.7547169806675551  0.594339622925383  1.0000
  Ti  Ti531     1.0  0.04245283065836093  0.8849056598942573  0.5981132078423984  1.0000
  Ti  Ti532     1.0  0.06132075496988654  0.8226415091738307  0.5528301888382144  1.0000
  Ti  Ti533     1.0  0.976415094610593  0.9528301884005335  0.5566037737552298  1.0000
  Ti  Ti534     1.0  0.9952830189221183  0.8905660376801063  0.511320754751046  1.0000
  Ti  Ti535     1.0  0.9103773585628248  0.02075471690680861  0.5150943396680614  1.0000
  Ti  Ti536     1.0  0.014150944191072254  0.7283018859748971  0.666037736348674  1.0000
  Ti  Ti537     1.0  0.9292452838317786  0.8584905652015988  0.6698113212656895  1.0000
  Ti  Ti538     1.0  0.9481132081433042  0.7962264144811727  0.6245283022615056  1.0000
  Ti  Ti539     1.0  0.8632075477840105  0.9264150937078751  0.628301887178521  1.0000
  Ti  Ti540     1.0  0.882075472095536  0.8641509429874485  0.583018868174337  1.0000
  Ti  Ti541     1.0  0.7971698117362425  0.9943396222141507  0.5867924530913525  1.0000
  Ti  Ti542     1.0  0.8160377360477681  0.9320754714937242  0.5415094340871686  1.0000
  Ti  Ti543     1.0  0.731132075688474  0.06226415072042673  0.5452830190041837  1.0000
  Ti  Ti544     1.0  0.75  0.9999999999999998  0.5  1.0000
  Ti  Ti545     1.0  0.6650943396407061  0.1301886792267022  0.5037735849170154  1.0000
  Ti  Ti546     1.0  0.6839622639522319  0.06792452850627545  0.45849056591283166  1.0000
  Ti  Ti547     1.0  0.5990566035929379  0.19811320773297802  0.46226415082984684  1.0000
  Ti  Ti548     1.0  0.7028301892211856  0.9056603768010658  0.6132075475104597  1.0000
  Ti  Ti549     1.0  0.6179245288618919  0.0358490560277679  0.616981132427475  1.0000
  Ti  Ti550     1.0  0.6367924531734173  0.9735849053073418  0.571698113423291  1.0000
  Ti  Ti551     1.0  0.5518867928141237  0.10377358453404416  0.5754716983403063  1.0000
  Ti  Ti552     1.0  0.5707547171256492  0.04150943381361762  0.5301886793361226  1.0000
  Ti  Ti553     1.0  0.4858490567663555  0.1716981130403202  0.5339622642531378  1.0000
  Ti  Ti554     1.0  0.5047169810778811  0.10943396231989347  0.4886792452489539  1.0000
  Ti  Ti555     1.0  0.4198113207185873  0.23962264154659554  0.49245283016596925  1.0000
  Ti  Ti556     1.0  0.43867924503011324  0.1773584908261691  0.44716981116178545  1.0000
  Ti  Ti557     1.0  0.3537735846708193  0.307547170052871  0.4509433960788009  1.0000
  Ti  Ti558     1.0  0.37264150898234527  0.24528301933244498  0.405660377074617  1.0000
  Ti  Ti559     1.0  0.39150943425129875  0.08301886762723525  0.560377358672245  1.0000
  Ti  Ti560     1.0  0.30660377389200494  0.21320754685393722  0.5641509435892603  1.0000
  Ti  Ti561     1.0  0.3254716982035312  0.1509433961335111  0.5188679245850766  1.0000
  Ti  Ti562     1.0  0.2405660378442367  0.28113207536021345  0.5226415095020918  1.0000
  Ti  Ti563     1.0  0.25943396215576287  0.21886792463978685  0.4773584904979081  1.0000
  Ti  Ti564     1.0  0.1745283017964693  0.34905660386648885  0.4811320754149235  1.0000
  Ti  Ti565     1.0  0.19339622610799465  0.2867924531460628  0.43584905641073945  1.0000
  Ti  Ti566     1.0  0.08018867928141242  0.2603773584534044  0.5075471698340306  1.0000
  Ti  Ti567     1.0  0.9952830189221186  0.39056603768010656  0.5113207547510459  1.0000
  Ti  Ti568     1.0  0.01415094323364434  0.3283018869596801  0.4660377357468621  1.0000
  Ti  Ti569     1.0  0.2688679252689537  0.8377358482947901  0.6547169815976281  1.0000
  Ti  Ti570     1.0  0.1839622649096599  0.9679245275214927  0.6584905665146434  1.0000
  Ti  Ti571     1.0  0.20283018922118576  0.9056603768010658  0.6132075475104597  1.0000
  Ti  Ti572     1.0  0.11792452886189209  0.035849056027768306  0.616981132427475  1.0000
  Ti  Ti573     1.0  0.136792453173417  0.9735849053073418  0.571698113423291  1.0000
  Ti  Ti574     1.0  0.051886792814123735  0.10377358453404395  0.5754716983403065  1.0000
  Ti  Ti575     1.0  0.08962264239460299  0.8792452821084081  0.6849056609337506  1.0000
  Ti  Ti576     1.0  0.004716982035309452  0.009433961335110074  0.688679245850766  1.0000
  Ti  Ti577     1.0  0.02358490634683533  0.9471698106146835  0.6433962268465823  1.0000
  Ti  Ti578     1.0  0.9386792459875417  0.07735848984138592  0.6471698117635976  1.0000
  Ti  Ti579     1.0  0.957547170299067  0.015094339120959392  0.6018867927594137  1.0000
  Ti  Ti580     1.0  0.8726415099397732  0.1452830183476612  0.605660377676429  1.0000
  Ti  Ti581     1.0  0.8915094342512991  0.08301886762723525  0.5603773586722451  1.0000
  Ti  Ti582     1.0  0.806603773892005  0.21320754685393722  0.5641509435892604  1.0000
  Ti  Ti583     1.0  0.8254716982035306  0.1509433961335105  0.5188679245850767  1.0000
  Ti  Ti584     1.0  0.7405660378442368  0.28113207536021306  0.5226415095020919  1.0000
  Ti  Ti585     1.0  0.8443396234724847  0.9886792444283012  0.6735849061827047  1.0000
  Ti  Ti586     1.0  0.7594339631131906  0.11886792365500375  0.6773584910997199  1.0000
  Ti  Ti587     1.0  0.7783018874247166  0.05660377293457702  0.6320754720955363  1.0000
  Ti  Ti588     1.0  0.6933962270654227  0.1867924521612794  0.6358490570125515  1.0000
  Ti  Ti589     1.0  0.7122641513769487  0.12452830144085267  0.5905660380083678  1.0000
  Ti  Ti590     1.0  0.627358491017655  0.2547169806675548  0.594339622925383  1.0000
  Ti  Ti591     1.0  0.6462264153291805  0.1924528299471285  0.5490566039211993  1.0000
  Ti  Ti592     1.0  0.5613207549698866  0.3226415091738309  0.5528301888382144  1.0000
  Ti  Ti593     1.0  0.5801886792814123  0.2603773584534044  0.5075471698340306  1.0000
  Ti  Ti594     1.0  0.4952830189221182  0.3905660376801067  0.5113207547510458  1.0000
  Ti  Ti595     1.0  0.514150943233644  0.32830188695968043  0.466037735746862  1.0000
  Ti  Ti596     1.0  0.4292452828743504  0.4584905661863825  0.4698113206638774  1.0000
  Ti  Ti597     1.0  0.5330188685025975  0.1660377352544705  0.6207547173444901  1.0000
  Ti  Ti598     1.0  0.448113208143304  0.2962264144811729  0.6245283022615055  1.0000
  Ti  Ti599     1.0  0.46698113245483003  0.23396226376074614  0.5792452832573218  1.0000
  Ti  Ti600     1.0  0.38207547209553605  0.36415094298744854  0.583018868174337  1.0000
  Ti  Ti601     1.0  0.40094339640706167  0.3018867922670222  0.537735849170153  1.0000
  Ti  Ti602     1.0  0.31603773604776814  0.4320754714937244  0.5415094340871686  1.0000
  Ti  Ti603     1.0  0.33490566035929387  0.3698113207732974  0.4962264150829847  1.0000
  Ti  Ti604     1.0  0.24999999999999992  0.49999999999999983  0.4999999999999999  1.0000
  Ti  Ti605     1.0  0.2688679243115254  0.4377358492795734  0.4547169809958161  1.0000
  Ti  Ti606     1.0  0.22169811353271124  0.3433962260806392  0.5679245285062757  1.0000
  Ti  Ti607     1.0  0.13679245317341757  0.473584905307342  0.571698113423291  1.0000
  Ti  Ti608     1.0  0.1556603774849433  0.4113207545869151  0.5264150944191073  1.0000
  Ti  Ti609     1.0  0.07075471712564935  0.5415094338136178  0.5301886793361225  1.0000
  Ti  Ti610     1.0  0.2783018874247168  0.056603772934576815  0.6320754720955363  1.0000
  Ti  Ti611     1.0  0.19339622706542298  0.186792452161279  0.6358490570125517  1.0000
  Ti  Ti612     1.0  0.09905660455036634  0.09811320674819443  0.6622641514316587  1.0000
  Ti  Ti613     1.0  0.6179245279044637  0.6358490570125516  0.416981131825663  1.0000
  Ti  Ti614     1.0  0.03301886850259786  0.1660377352544705  0.6207547173444902  1.0000
  Ti  Ti615     1.0  0.948113208143304  0.29622641448117226  0.6245283022615056  1.0000
  Ti  Ti616     1.0  0.9669811324548301  0.23396226376074614  0.5792452832573218  1.0000
  Ti  Ti617     1.0  0.8820754720955363  0.36415094298744854  0.583018868174337  1.0000
  Ti  Ti618     1.0  0.8537735856282477  0.2075471690680879  0.6509433966806127  1.0000
  Ti  Ti619     1.0  0.7688679252689538  0.3377358482947905  0.654716981597628  1.0000
  Ti  Ti620     1.0  0.7877358495804794  0.27547169757436335  0.6094339625934442  1.0000
  Ti  Ti621     1.0  0.7028301892211855  0.4056603768010663  0.6132075475104594  1.0000
  Ti  Ti622     1.0  0.7216981135327113  0.343396226080639  0.5679245285062758  1.0000
  Ti  Ti623     1.0  0.6367924531734174  0.473584905307342  0.571698113423291  1.0000
  Ti  Ti624     1.0  0.6556603774849432  0.41132075458691525  0.5264150944191073  1.0000
  Ti  Ti625     1.0  0.5707547171256494  0.5415094338136176  0.5301886793361226  1.0000
  Ti  Ti626     1.0  0.6745283027538973  0.24905660288170553  0.6811320760167354  1.0000
  Ti  Ti627     1.0  0.589622642394603  0.37924528210840813  0.6849056609337506  1.0000
  Ti  Ti628     1.0  0.6084905667061291  0.3169811313879814  0.6396226419295667  1.0000
  Ti  Ti629     1.0  0.5235849063468354  0.44716981061468375  0.643396226846582  1.0000
  Ti  Ti630     1.0  0.5424528306583611  0.38490565989425723  0.5981132078423983  1.0000
  Ti  Ti631     1.0  0.45754717029906694  0.5150943391209596  0.6018867927594136  1.0000
  Ti  Ti632     1.0  0.47641509461059284  0.4528301884005327  0.5566037737552297  1.0000
  Ti  Ti633     1.0  0.39150943425129875  0.5830188676272356  0.5603773586722449  1.0000
  Ti  Ti634     1.0  0.41037735856282476  0.520754716906809  0.5150943396680612  1.0000
  Ti  Ti635     1.0  0.32547169820353106  0.6509433961335112  0.5188679245850766  1.0000
  Ti  Ti636     1.0  0.3443396225150565  0.5886792454130849  0.47358490558089256  1.0000
  Ti  Ti637     1.0  0.3632075477840105  0.42641509370787506  0.6283018871785208  1.0000
  Ti  Ti638     1.0  0.2783018874247169  0.5566037729345769  0.6320754720955363  1.0000
  Ti  Ti639     1.0  0.29716981173624224  0.4943396222141503  0.5867924530913523  1.0000
  Ti  Ti640     1.0  0.2122641513769487  0.6245283014408527  0.5905660380083677  1.0000
  Ti  Ti641     1.0  0.2311320756884743  0.5622641507204266  0.5452830190041837  1.0000
  Ti  Ti642     1.0  0.14622641532918007  0.6924528299471288  0.549056603921199  1.0000
  Ti  Ti643     1.0  0.10849056574870096  0.41698113237276485  0.4396226413277548  1.0000
  Ti  Ti644     1.0  0.9292452828743506  0.4584905661863824  0.46981132066387743  1.0000
  Ti  Ti645     1.0  0.8160377360477675  0.4320754714937244  0.5415094340871682  1.0000
  Ti  Ti646     1.0  0.8632075477840103  0.42641509370787506  0.628301887178521  1.0000
  Ti  Ti647     1.0  0.3820754711381076  0.9641509439722319  0.383018867572525  1.0000
  Ti  Ti648     1.0  0.7971698117362422  0.4943396222141511  0.5867924530913523  1.0000
  Ti  Ti649     1.0  0.7122641513769481  0.6245283014408529  0.5905660380083677  1.0000
  Ti  Ti650     1.0  0.6179245288618916  0.5358490560277681  0.6169811324274749  1.0000
  Ti  Ti651     1.0  0.5330188685025985  0.6660377352544705  0.6207547173444904  1.0000
  Ti  Ti652     1.0  0.5518867928141231  0.6037735845340437  0.5754716983403062  1.0000
  Ti  Ti653     1.0  0.4669811324548303  0.7339622637607461  0.5792452832573218  1.0000
  Ti  Ti654     1.0  0.4858490567663555  0.6716981130403202  0.5339622642531378  1.0000
  Ti  Ti655     1.0  0.40094339640706195  0.8018867922670222  0.5377358491701534  1.0000
  Ti  Ti656     1.0  0.43867924598754177  0.5773584898413857  0.6471698117635976  1.0000
  Ti  Ti657     1.0  0.3537735856282478  0.7075471690680879  0.6509433966806127  1.0000
  Ti  Ti658     1.0  0.3726415099397735  0.6452830183476614  0.605660377676429  1.0000
  Ti  Ti659     1.0  0.28773584958047943  0.775471697574364  0.6094339625934442  1.0000
  Ti  Ti660     1.0  0.24056603784423655  0.7811320753602131  0.5226415095020918  1.0000
  Ti  Ti661     1.0  0.19339622706542298  0.6867924521612793  0.6358490570125515  1.0000
  Ti  Ti662     1.0  0.10849056670612887  0.816981131387982  0.6396226419295666  1.0000
  Ti  Ti663     1.0  0.957547170299067  0.5150943391209594  0.6018867927594137  1.0000
  Ti  Ti664     1.0  0.8915094342512987  0.5830188676272353  0.5603773586722449  1.0000
  Ti  Ti665     1.0  0.6273584910176546  0.7547169806675549  0.594339622925383  1.0000
  Ti  Ti666     1.0  0.38207547209553605  0.8641509429874485  0.583018868174337  1.0000
  Ti  Ti667     1.0  0.29716981173624196  0.9943396222141503  0.5867924530913523  1.0000
  Ti  Ti668     1.0  0.31603773604776786  0.9320754714937242  0.5415094340871683  1.0000
  Ti  Ti669     1.0  0.03301886850259813  0.6660377352544705  0.6207547173444901  1.0000
  Ti  Ti670     1.0  0.36320754778400965  0.9264150937078747  0.6283018871785208  1.0000
  Ti  Ti671     1.0  0.8537735846708193  0.307547170052871  0.4509433960788008  1.0000
  Ti  Ti672     1.0  0.1273584900602263  0.35471698165233845  0.394339622323571  1.0000
  Ti  Ti673     1.0  0.042452829700932886  0.4849056608790404  0.3981132072405864  1.0000
  Ti  Ti674     1.0  0.31603773509034  0.5320754724785076  0.3415094334853567  1.0000
  Ti  Ti675     1.0  0.23113207473104627  0.6622641517052098  0.34528301840237197  1.0000
  Ti  Ti676     1.0  0.20283018826375745  0.5056603777858495  0.41320754690864764  1.0000
  Ti  Ti677     1.0  0.1179245279044639  0.6358490570125517  0.416981131825663  1.0000
  Ti  Ti678     1.0  0.13679245221598937  0.5735849062921251  0.3716981128214792  1.0000
  Ti  Ti679     1.0  0.05188679185669582  0.7037735855188275  0.3754716977384944  1.0000
  Ti  Ti680     1.0  0.9575471693416389  0.6150943401057429  0.40188679215760165  1.0000
  Ti  Ti681     1.0  0.8726415089823452  0.745283019332445  0.405660377074617  1.0000
  Ti  Ti682     1.0  0.8915094332938708  0.6830188686120185  0.3603773580704332  1.0000
  Ti  Ti683     1.0  0.806603772934577  0.8132075478387206  0.3641509429874484  1.0000
  Ti  Ti684     1.0  0.45754716934163897  0.615094340105743  0.4018867921576018  1.0000
  Ti  Ti685     1.0  0.3726415089823453  0.745283019332445  0.4056603770746171  1.0000
  Ti  Ti686     1.0  0.39150943329387083  0.6830188686120185  0.3603773580704332  1.0000
  Ti  Ti687     1.0  0.30660377293457713  0.8132075478387207  0.3641509429874486  1.0000
  Ti  Ti688     1.0  0.2783018864672886  0.6566037739193602  0.4320754714937243  1.0000
  Ti  Ti689     1.0  0.19339622610799478  0.7867924531460625  0.4358490564107396  1.0000
  Ti  Ti690     1.0  0.21226415041952051  0.7245283024256362  0.39056603740655577  1.0000
  Ti  Ti691     1.0  0.1273584900602267  0.8547169816523383  0.39433962232357106  1.0000
  Ti  Ti692     1.0  0.14622641437175243  0.7924528309319119  0.3490566033193873  1.0000
  Ti  Ti693     1.0  0.06132075401245862  0.9226415101586141  0.3528301882364026  1.0000
  Ti  Ti694     1.0  0.08018867832398395  0.8603773594381876  0.30754716923221875  1.0000
  Ti  Ti695     1.0  0.9952830179646902  0.9905660386648896  0.31132075414923405  1.0000
  Ti  Ti696     1.0  0.09905660359293816  0.6981132077329778  0.46226415082984684  1.0000
  Ti  Ti697     1.0  0.014150943233644204  0.82830188695968  0.4660377357468622  1.0000
  Ti  Ti698     1.0  0.03301886754517008  0.7660377362392539  0.4207547167426784  1.0000
  Ti  Ti699     1.0  0.9481132071858763  0.896226415465956  0.42452830165969363  1.0000
  Ti  Ti700     1.0  0.966981131497402  0.8339622647455295  0.3792452826555098  1.0000
  Ti  Ti701     1.0  0.882075471138108  0.9641509439722316  0.38301886757252507  1.0000
  Ti  Ti702     1.0  0.9009433954496338  0.9018867932518052  0.3377358485683412  1.0000
  Ti  Ti703     1.0  0.81603773509034  0.03207547247850745  0.34150943348535656  1.0000
  Ti  Ti704     1.0  0.7877358486230517  0.8754716985591472  0.4094339619916324  1.0000
  Ti  Ti705     1.0  0.7028301882637573  0.005660377785849318  0.41320754690864747  1.0000
  Ti  Ti706     1.0  0.7216981125752834  0.9433962270654228  0.36792452790446384  1.0000
  Ti  Ti707     1.0  0.6367924522159893  0.07358490629212507  0.371698112821479  1.0000
  Ti  Ti708     1.0  0.655660376527515  0.011320755571698439  0.3264150938172953  1.0000
  Ti  Ti709     1.0  0.47641509365316465  0.052830189385316355  0.35660377315341774  1.0000
  Ti  Ti710     1.0  0.22169811257528332  0.943396227065423  0.36792452790446384  1.0000
  Ti  Ti711     1.0  0.1367924522159895  0.07358490629212507  0.3716981128214792  1.0000
  Ti  Ti712     1.0  0.1556603774849433  0.9113207545869153  0.5264150944191073  1.0000
  Ti  Ti713     1.0  0.17452830179646917  0.8490566038664888  0.4811320754149235  1.0000
  Ti  Ti714     1.0  0.08962264143717508  0.9792452830931915  0.4849056603319386  1.0000
  Ti  Ti715     1.0  0.04245282970093275  0.9849056608790406  0.3981132072405864  1.0000
  Ti  Ti716     1.0  0.9575471693416389  0.1150943401057427  0.4018867921576017  1.0000
  Ti  Ti717     1.0  0.9764150936531646  0.05283018938531626  0.3566037731534178  1.0000
  Ti  Ti718     1.0  0.8915094332938709  0.18301886861201844  0.3603773580704332  1.0000
  Ti  Ti719     1.0  0.9103773576053964  0.120754717891592  0.31509433906624934  1.0000
  Ti  Ti720     1.0  0.9292452828743503  0.9584905661863822  0.46981132066387754  1.0000
  Ti  Ti721     1.0  0.8443396225150565  0.08867924541308465  0.4735849055808927  1.0000
  Ti  Ti722     1.0  0.8632075468265826  0.02641509469265823  0.4283018865767089  1.0000
  Ti  Ti723     1.0  0.7783018864672883  0.1566037739193603  0.4320754714937242  1.0000
  Ti  Ti724     1.0  0.7971698107788142  0.09433962319893407  0.38679245248954036  1.0000
  Ti  Ti725     1.0  0.7122641504195202  0.22452830242563607  0.39056603740655566  1.0000
  Ti  Ti726     1.0  0.7311320747310459  0.16226415170520944  0.34528301840237186  1.0000
  Ti  Ti727     1.0  0.6179245279044637  0.1358490570125517  0.416981131825663  1.0000
  Ti  Ti728     1.0  0.53301886754517  0.2660377362392537  0.4207547167426783  1.0000
  Ti  Ti729     1.0  0.5518867918566955  0.20377358551882715  0.37547169773849437  1.0000
  Ti  Ti730     1.0  0.23113207568847405  0.06226415072042673  0.5452830190041837  1.0000
  Ti  Ti731     1.0  0.033018867545169944  0.26603773623925386  0.4207547167426783  1.0000
  Ti  Ti732     1.0  0.051886791856695  0.20377358551882715  0.37547169773849437  1.0000
  Ti  Ti733     1.0  0.9669811314974015  0.33396226474552976  0.37924528265550983  1.0000
  Ti  Ti734     1.0  0.07075471712564947  0.04150943381361762  0.5301886793361226  1.0000
  Ti  Ti735     1.0  0.9858490567663556  0.17169811304032  0.5339622642531378  1.0000
  Ti  Ti736     1.0  0.0047169810778816745  0.10943396231989327  0.488679245248954  1.0000
  Ti  Ti737     1.0  0.9198113207185876  0.23962264154659535  0.49245283016596947  1.0000
  Ti  Ti738     1.0  0.872641508982345  0.24528301933244478  0.405660377074617  1.0000
  Ti  Ti739     1.0  0.7877358486230511  0.37547169855914686  0.4094339619916322  1.0000
  Ti  Ti740     1.0  0.8066037729345771  0.3132075478387206  0.36415094298744854  1.0000
  Ti  Ti741     1.0  0.6933962261079948  0.2867924531460628  0.43584905641073945  1.0000
  Ti  Ti742     1.0  0.6084905657487006  0.41698113237276485  0.4396226413277548  1.0000
  Ti  Ti743     1.0  0.6273584900602264  0.35471698165233845  0.39433962232357095  1.0000
  Ti  Ti744     1.0  0.44811320718587616  0.3962264154659559  0.4245283016596936  1.0000
  Ti  Ti745     1.0  0.4575471702990672  0.015094339120959392  0.6018867927594137  1.0000
  Ti  Ti746     1.0  0.37264150993977313  0.14528301834766177  0.605660377676429  1.0000
  Ti  Ti747     1.0  0.21226415137694857  0.12452830144085246  0.5905660380083678  1.0000
  Ti  Ti748     1.0  0.12735849101765476  0.2547169806675548  0.594339622925383  1.0000
  Ti  Ti749     1.0  0.1462264153291805  0.1924528299471285  0.5490566039211993  1.0000
  Ti  Ti750     1.0  0.061320754969886815  0.3226415091738307  0.5528301888382146  1.0000
  Ti  Ti751     1.0  0.8820754711381077  0.46415094397223183  0.383018867572525  1.0000
  Ti  Ti752     1.0  0.9009433964070617  0.30188679226702236  0.537735849170153  1.0000
  Ti  Ti753     1.0  0.7028301882637575  0.5056603777858495  0.41320754690864764  1.0000
  Ti  Ti754     1.0  0.9858490558089277  0.7716981140251029  0.33396226365132603  1.0000
  Ti  Ti755     1.0  0.04245283065836093  0.38490565989425723  0.5981132078423982  1.0000
  Ti  Ti756     1.0  0.976415094610593  0.4528301884005331  0.5566037737552297  1.0000
  Ti  Ti757     1.0  0.4764150936531647  0.5528301893853164  0.35660377315341785  1.0000
  Ti  Ti758     1.0  0.2971698107788143  0.5943396231989339  0.3867924524895404  1.0000
  Ti  Ti759     1.0  0.1839622639522317  0.5679245285062758  0.45849056591283144  1.0000
  Ti  Ti760     1.0  0.2594339621557624  0.718867924639787  0.4773584904979079  1.0000
  Ti  Ti761     1.0  0.22169811257528305  0.4433962270654226  0.36792452790446384  1.0000
