data_image0
_chemical_formula_structural       Ti520
_chemical_formula_sum              "Ti520"
_cell_length_a       81.35590547670206
_cell_length_b       44.22703047906833
_cell_length_c       60.13496508046775
_cell_angle_alpha    90.0
_cell_angle_beta     90.0
_cell_angle_gamma    2.440566178125893

_space_group_name_H-M_alt    "P 1"
_space_group_IT_number       1

loop_
  _space_group_symop_operation_xyz
  'x, y, z'

loop_
  _atom_site_type_symbol
  _atom_site_label
  _atom_site_symmetry_multiplicity
  _atom_site_fract_x
  _atom_site_fract_y
  _atom_site_fract_z
  _atom_site_occupancy
  Ti  Ti1       1.0  0.0  0.0  1.221635915155475e-17  1.0000
  Ti  Ti2       1.0  0.4999999999999997  0.5000000000000081  0.0  1.0000
  Ti  Ti3       1.0  0.9761904761904764  0.6761904761904858  0.003731343283582082  1.0000
  Ti  Ti4       1.0  0.4761904761904764  0.1761904761904787  0.003731343283582036  1.0000
  Ti  Ti5       1.0  0.9523809523809526  0.3523809523809573  0.007462686567164151  1.0000
  Ti  Ti6       1.0  0.45238095238095233  0.8523809523809649  0.007462686567164165  1.0000
  Ti  Ti7       1.0  0.9285714285714279  0.028571428571429875  0.011194029850746249  1.0000
  Ti  Ti8       1.0  0.4285714285714282  0.5285714285714372  0.01119402985074626  1.0000
  Ti  Ti9       1.0  0.9047619047619049  0.7047619047619146  0.014925373134328289  1.0000
  Ti  Ti10      1.0  0.4047619047619047  0.20476190476190817  0.01492537313432831  1.0000
  Ti  Ti11      1.0  0.8809523809523813  0.3809523809523857  0.01865671641791028  1.0000
  Ti  Ti12      1.0  0.38095238095238126  0.8809523809523933  0.01865671641791031  1.0000
  Ti  Ti13      1.0  0.8571428571428561  0.05714285714285975  0.022388059701492487  1.0000
  Ti  Ti14      1.0  0.3571428571428565  0.5571428571428666  0.022388059701492533  1.0000
  Ti  Ti15      1.0  0.8333333333333327  0.7333333333333453  0.02611940298507457  1.0000
  Ti  Ti16      1.0  0.33333333333333276  0.23333333333333783  0.026119402985074616  1.0000
  Ti  Ti17      1.0  0.8095238095238096  0.40952380952381484  0.029850746268656567  1.0000
  Ti  Ti18      1.0  0.3095238095238091  0.9095238095238233  0.029850746268656612  1.0000
  Ti  Ti19      1.0  0.7857142857142864  0.08571428571428528  0.03358208955223856  1.0000
  Ti  Ti20      1.0  0.2857142857142857  0.5857142857142943  0.03358208955223861  1.0000
  Ti  Ti21      1.0  0.7619047619047626  0.7619047619047714  0.03731343283582055  1.0000
  Ti  Ti22      1.0  0.2619047619047628  0.26190476190476425  0.03731343283582061  1.0000
  Ti  Ti23      1.0  0.7380952380952395  0.4380952380952414  0.04104477611940274  1.0000
  Ti  Ti24      1.0  0.23809523809523875  0.9380952380952504  0.04104477611940277  1.0000
  Ti  Ti25      1.0  0.7142857142857124  0.1142857142857195  0.04477611940298497  1.0000
  Ti  Ti26      1.0  0.21428571428571366  0.6142857142857246  0.044776119402985  1.0000
  Ti  Ti27      1.0  0.6904761904761896  0.7904761904762034  0.048507462686566964  1.0000
  Ti  Ti28      1.0  0.19047619047618972  0.2904761904761967  0.048507462686567  1.0000
  Ti  Ti29      1.0  0.6666666666666651  0.46666666666667606  0.052238805970149134  1.0000
  Ti  Ti30      1.0  0.16666666666666674  0.9666666666666804  0.05223880597014918  1.0000
  Ti  Ti31      1.0  0.6428571428571425  0.14285714285714618  0.05597014925373113  1.0000
  Ti  Ti32      1.0  0.14285714285714185  0.6428571428571542  0.055970149253731394  1.0000
  Ti  Ti33      1.0  0.6190476190476193  0.8190476190476297  0.059701492537313126  1.0000
  Ti  Ti34      1.0  0.11904761904762023  0.3190476190476216  0.05970149253731316  1.0000
  Ti  Ti35      1.0  0.5952380952380969  0.49523809523809964  0.06343283582089511  1.0000
  Ti  Ti36      1.0  0.0952380952380964  0.9952380952381077  0.06343283582089522  1.0000
  Ti  Ti37      1.0  0.571428571428573  0.17142857142857057  0.06716417910447711  1.0000
  Ti  Ti38      1.0  0.07142857142857341  0.6714285714285777  0.06716417910447699  1.0000
  Ti  Ti39      1.0  0.5476190476190496  0.8476190476190549  0.07089552238805932  1.0000
  Ti  Ti40      1.0  0.04761904761904889  0.3476190476190514  0.07089552238805923  1.0000
  Ti  Ti41      1.0  0.5238095238095251  0.5238095238095285  0.07462686567164109  1.0000
  Ti  Ti42      1.0  0.023809523809526913  0.023809523809517848  0.07462686567164097  1.0000
  Ti  Ti43      1.0  0.4999999999999999  0.20000000000000212  0.0783582089552237  1.0000
  Ti  Ti44      1.0  0.9999999999999974  0.7000000000000137  0.07835820895522393  1.0000
  Ti  Ti45      1.0  0.47619047619047855  0.8761904761904828  0.08208955223880547  1.0000
  Ti  Ti46      1.0  0.9761904761904767  0.37619047619048024  0.0820895522388057  1.0000
  Ti  Ti47      1.0  0.45238095238095366  0.5523809523809574  0.0858208955223877  1.0000
  Ti  Ti48      1.0  0.9523809523809519  0.052380952380953825  0.08582089552238792  1.0000
  Ti  Ti49      1.0  0.4285714285714247  0.228571428571439  0.08955223880596992  1.0000
  Ti  Ti50      1.0  0.928571428571427  0.7285714285714416  0.08955223880597016  1.0000
  Ti  Ti51      1.0  0.4047619047619034  0.9047619047619196  0.09328358208955169  1.0000
  Ti  Ti52      1.0  0.9047619047619058  0.4047619047619082  0.0932835820895519  1.0000
  Ti  Ti53      1.0  0.3809523809523793  0.5809523809523924  0.09701492537313391  1.0000
  Ti  Ti54      1.0  0.8809523809523809  0.0809523809523827  0.09701492537313414  1.0000
  Ti  Ti55      1.0  0.3571428571428559  0.25714285714286345  0.10074626865671601  1.0000
  Ti  Ti56      1.0  0.8571428571428594  0.7571428571428634  0.1007462686567159  1.0000
  Ti  Ti57      1.0  0.33333333333333043  0.9333333333333521  0.10447761194029825  1.0000
  Ti  Ti58      1.0  0.8333333333333355  0.4333333333333362  0.1044776119402981  1.0000
  Ti  Ti59      1.0  0.3095238095238104  0.6095238095238161  0.10820895522388001  1.0000
  Ti  Ti60      1.0  0.8095238095238134  0.1095238095238036  0.10820895522387987  1.0000
  Ti  Ti61      1.0  0.2857142857142849  0.28571428571429236  0.11194029850746225  1.0000
  Ti  Ti62      1.0  0.7857142857142845  0.7857142857142992  0.11194029850746208  1.0000
  Ti  Ti63      1.0  0.2619047619047628  0.9619047619047723  0.11567164179104401  1.0000
  Ti  Ti64      1.0  0.7619047619047636  0.46190476190476504  0.11567164179104386  1.0000
  Ti  Ti65      1.0  0.2380952380952388  0.6380952380952449  0.11940298507462624  1.0000
  Ti  Ti66      1.0  0.738095238095239  0.13809523809523952  0.11940298507462609  1.0000
  Ti  Ti67      1.0  0.21428571428571394  0.31428571428571944  0.12313432835820848  1.0000
  Ti  Ti68      1.0  0.7142857142857139  0.8142857142857266  0.12313432835820831  1.0000
  Ti  Ti69      1.0  0.19047619047619402  0.9904761904761993  0.1268656716417902  1.0000
  Ti  Ti70      1.0  0.6904761904761928  0.49047619047619395  0.1268656716417901  1.0000
  Ti  Ti71      1.0  0.16666666666666843  0.6666666666666738  0.13059701492537246  1.0000
  Ti  Ti72      1.0  0.6666666666666672  0.16666666666666846  0.13059701492537232  1.0000
  Ti  Ti73      1.0  0.14285714285714576  0.34285714285714114  0.1343283582089542  1.0000
  Ti  Ti74      1.0  0.6428571428571481  0.8428571428571465  0.13432835820895403  1.0000
  Ti  Ti75      1.0  0.11904761904762161  0.01904761904761392  0.1380597014925364  1.0000
  Ti  Ti76      1.0  0.6190476190476217  0.5190476190476229  0.1380597014925363  1.0000
  Ti  Ti77      1.0  0.09523809523809888  0.6952380952380955  0.14179104477611862  1.0000
  Ti  Ti78      1.0  0.5952380952381012  0.19523809523808663  0.14179104477611804  1.0000
  Ti  Ti79      1.0  0.07142857142857756  0.37142857142856833  0.14552238805970089  1.0000
  Ti  Ti80      1.0  0.5714285714285755  0.8714285714285754  0.14552238805970028  1.0000
  Ti  Ti81      1.0  0.047619047619050676  0.0476190476190428  0.14925373134328215  1.0000
  Ti  Ti82      1.0  0.5476190476190544  0.5476190476190428  0.14925373134328204  1.0000
  Ti  Ti83      1.0  0.023809523809516783  0.7238095238095476  0.15298507462686609  1.0000
  Ti  Ti84      1.0  0.523809523809522  0.22380952380953154  0.15298507462686597  1.0000
  Ti  Ti85      1.0  8.733757329559545e-17  0.40000000000000424  0.15671641791044738  1.0000
  Ti  Ti86      1.0  0.49999999999999895  0.9000000000000132  0.15671641791044727  1.0000
  Ti  Ti87      1.0  0.9761904761904755  0.07619047619047878  0.1604477611940296  1.0000
  Ti  Ti88      1.0  0.47619047619048066  0.576190476190477  0.16044776119402848  1.0000
  Ti  Ti89      1.0  0.9523809523809571  0.7523809523809515  0.16417910447761092  1.0000
  Ti  Ti90      1.0  0.45238095238095793  0.25238095238094443  0.1641791044776107  1.0000
  Ti  Ti91      1.0  0.928571428571426  0.42857142857144026  0.16791044776119407  1.0000
  Ti  Ti92      1.0  0.4285714285714242  0.928571428571449  0.1679104477611939  1.0000
  Ti  Ti93      1.0  0.9047619047619073  0.10476190476190056  0.17164179104477537  1.0000
  Ti  Ti94      1.0  0.4047619047619082  0.6047619047619059  0.17164179104477517  1.0000
  Ti  Ti95      1.0  0.8809523809523834  0.7809523809523875  0.1753731343283576  1.0000
  Ti  Ti96      1.0  0.3809523809523827  0.28095238095238034  0.17537313432835647  1.0000
  Ti  Ti97      1.0  0.8571428571428494  0.457142857142878  0.17910447761193982  1.0000
  Ti  Ti98      1.0  0.35714285714285987  0.9571428571428674  0.17910447761193965  1.0000
  Ti  Ti99      1.0  0.8333333333333337  0.13333333333333475  0.18283582089552206  1.0000
  Ti  Ti100     1.0  0.33333333333333315  0.633333333333342  0.1828358208955219  1.0000
  Ti  Ti101     1.0  0.8095238095238064  0.8095238095238253  0.18656716417910335  1.0000
  Ti  Ti102     1.0  0.30952380952381603  0.30952380952380215  0.18656716417910316  1.0000
  Ti  Ti103     1.0  0.7857142857142909  0.4857142857142838  0.1902985074626856  1.0000
  Ti  Ti104     1.0  0.285714285714289  0.9857142857142909  0.19029850746268442  1.0000
  Ti  Ti105     1.0  0.7619047619047584  0.16190476190477074  0.1940298507462678  1.0000
  Ti  Ti106     1.0  0.26190476190476647  0.6619047619047637  0.19402985074626763  1.0000
  Ti  Ti107     1.0  0.7380952380952357  0.8380952380952542  0.1977611940298507  1.0000
  Ti  Ti108     1.0  0.23809523809523792  0.3380952380952435  0.19776119402985062  1.0000
  Ti  Ti109     1.0  0.7142857142857117  0.5142857142857269  0.20149253731343203  1.0000
  Ti  Ti110     1.0  0.21428571428571122  0.014285714285719769  0.2014925373134319  1.0000
  Ti  Ti111     1.0  0.6904761904761931  0.19047619047618541  0.20522388059701427  1.0000
  Ti  Ti112     1.0  0.19047619047619402  0.6904761904761926  0.2052238805970132  1.0000
  Ti  Ti113     1.0  0.6666666666666607  0.86666666666669  0.2089552238805965  1.0000
  Ti  Ti114     1.0  0.16666666666666005  0.36666666666668307  0.20895522388059637  1.0000
  Ti  Ti115     1.0  0.6428571428571449  0.5428571428571451  0.21268656716417872  1.0000
  Ti  Ti116     1.0  0.14285714285713877  0.042857142857148645  0.21268656716417925  1.0000
  Ti  Ti117     1.0  0.619047619047621  0.21904761904761783  0.21641791044776  1.0000
  Ti  Ti118     1.0  0.11904761904761453  0.7190476190476357  0.21641791044776057  1.0000
  Ti  Ti119     1.0  0.5952380952380937  0.8952380952381119  0.2201492537313432  1.0000
  Ti  Ti120     1.0  0.09523809523809054  0.39523809523811193  0.22014925373134372  1.0000
  Ti  Ti121     1.0  0.5714285714285698  0.5714285714285847  0.22388059701492447  1.0000
  Ti  Ti122     1.0  0.07142857142856507  0.07142857142858462  0.22388059701492502  1.0000
  Ti  Ti123     1.0  0.5476190476190541  0.24761904761903958  0.22761194029850668  1.0000
  Ti  Ti124     1.0  0.04761904761904658  0.7476190476190574  0.22761194029850726  1.0000
  Ti  Ti125     1.0  0.5238095238095255  0.9238095238095301  0.231343283582088  1.0000
  Ti  Ti126     1.0  0.023809523809522462  0.42380952380953  0.23134328358208858  1.0000
  Ti  Ti127     1.0  0.49999999999999184  0.6000000000000206  0.23507462686567118  1.0000
  Ti  Ti128     1.0  0.9999999999999983  0.1000000000000064  0.23507462686567174  1.0000
  Ti  Ti129     1.0  0.4761904761904776  0.2761904761904756  0.23880597014925245  1.0000
  Ti  Ti130     1.0  0.9761904761904728  0.7761904761904934  0.238805970149253  1.0000
  Ti  Ti131     1.0  0.4523809523809534  0.9523809523809625  0.2425373134328347  1.0000
  Ti  Ti132     1.0  0.9523809523809571  0.45238095238094833  0.24253731343283527  1.0000
  Ti  Ti133     1.0  0.4285714285714279  0.6285714285714389  0.24626865671641693  1.0000
  Ti  Ti134     1.0  0.9285714285714218  0.12857142857144238  0.24626865671641748  1.0000
  Ti  Ti135     1.0  0.4047619047619038  0.30476190476191156  0.24999999999999914  1.0000
  Ti  Ti136     1.0  0.9047619047619047  0.8047619047619151  0.2499999999999997  1.0000
  Ti  Ti137     1.0  0.38095238095238804  0.9809523809523842  0.2537313432835804  1.0000
  Ti  Ti138     1.0  0.8809523809523806  0.4809523809523879  0.25373134328358105  1.0000
  Ti  Ti139     1.0  0.3571428571428583  0.6571428571428606  0.2574626865671626  1.0000
  Ti  Ti140     1.0  0.8571428571428549  0.15714285714286416  0.2574626865671633  1.0000
  Ti  Ti141     1.0  0.33333333333333703  0.33333333333333337  0.2611940298507449  1.0000
  Ti  Ti142     1.0  0.8333333333333309  0.8333333333333511  0.2611940298507454  1.0000
  Ti  Ti143     1.0  0.30952380952381003  0.009523809523806073  0.26492537313432707  1.0000
  Ti  Ti144     1.0  0.809523809523804  0.5095238095238239  0.26492537313432774  1.0000
  Ti  Ti145     1.0  0.2857142857142915  0.6857142857142823  0.2686567164179084  1.0000
  Ti  Ti146     1.0  0.7857142857142897  0.18571428571427878  0.26865671641790895  1.0000
  Ti  Ti147     1.0  0.2619047619047606  0.3619047619047692  0.2723880597014915  1.0000
  Ti  Ti148     1.0  0.7619047619047572  0.8619047619047872  0.27238805970149216  1.0000
  Ti  Ti149     1.0  0.23809523809524322  0.03809523809522784  0.2761194029850728  1.0000
  Ti  Ti150     1.0  0.7380952380952398  0.5380952380952421  0.2761194029850734  1.0000
  Ti  Ti151     1.0  0.21428571428572066  0.7142857142857147  0.27985074626865414  1.0000
  Ti  Ti152     1.0  0.7142857142857144  0.21428571428571835  0.27985074626865564  1.0000
  Ti  Ti153     1.0  0.1904761904761978  0.3904761904761769  0.28358208955223724  1.0000
  Ti  Ti154     1.0  0.6904761904761976  0.890476190476191  0.28358208955223696  1.0000
  Ti  Ti155     1.0  0.16666666666666677  0.06666666666666382  0.28731343283581856  1.0000
  Ti  Ti156     1.0  0.6666666666666634  0.5666666666666816  0.2873134328358201  1.0000
  Ti  Ti157     1.0  0.14285714285715512  0.7428571428571367  0.29104477611940177  1.0000
  Ti  Ti158     1.0  0.642857142857149  0.24285714285713658  0.29104477611940144  1.0000
  Ti  Ti159     1.0  0.1190476190476212  0.4190476190476271  0.29477611940298304  1.0000
  Ti  Ti160     1.0  0.6190476190476124  0.9190476190476449  0.2947761194029846  1.0000
  Ti  Ti161     1.0  0.09523809523810135  0.0952380952380856  0.2985074626865643  1.0000
  Ti  Ti162     1.0  0.5952380952381036  0.5952380952380857  0.2985074626865659  1.0000
  Ti  Ti163     1.0  0.07142857142857026  0.7714285714285868  0.302238805970149  1.0000
  Ti  Ti164     1.0  0.5714285714285615  0.27142857142859034  0.30223880597014857  1.0000
  Ti  Ti165     1.0  0.047619047619033655  0.44761904761908083  0.30597014925373217  1.0000
  Ti  Ti166     1.0  0.5476190476190387  0.9476190476190771  0.30597014925373167  1.0000
  Ti  Ti167     1.0  0.023809523809524828  0.12380952380952158  0.30970149253731155  1.0000
  Ti  Ti168     1.0  0.5238095238095132  0.6238095238095536  0.30970149253731305  1.0000
  Ti  Ti169     1.0  0.9999999999999997  0.8000000000000085  0.31343283582089476  1.0000
  Ti  Ti170     1.0  0.49999999999998745  0.3000000000000263  0.3134328358208962  1.0000
  Ti  Ti171     1.0  0.9761904761904767  0.47619047619048127  0.3171641791044761  1.0000
  Ti  Ti172     1.0  0.47619047619047034  0.976190476190499  0.3171641791044774  1.0000
  Ti  Ti173     1.0  0.9523809523809512  0.15238095238095756  0.3208955223880592  1.0000
  Ti  Ti174     1.0  0.4523809523809366  0.6523809523809896  0.3208955223880607  1.0000
  Ti  Ti175     1.0  0.928571428571426  0.8285714285714445  0.3246268656716405  1.0000
  Ti  Ti176     1.0  0.428571428571411  0.3285714285714623  0.32462686567164195  1.0000
  Ti  Ti177     1.0  0.9047619047619141  0.5047619047618889  0.32835820895522183  1.0000
  Ti  Ti178     1.0  0.40476190476190516  0.004761904761903036  0.3283582089552232  1.0000
  Ti  Ti179     1.0  0.8809523809523773  0.18095238095239355  0.33208955223880493  1.0000
  Ti  Ti180     1.0  0.3809523809523629  0.6809523809524256  0.33208955223880643  1.0000
  Ti  Ti181     1.0  0.8571428571428519  0.8571428571428805  0.33582089552238814  1.0000
  Ti  Ti182     1.0  0.3571428571428375  0.35714285714289823  0.3358208955223896  1.0000
  Ti  Ti183     1.0  0.83333333333334  0.5333333333333249  0.3395522388059676  1.0000
  Ti  Ti184     1.0  0.33333333333333154  0.03333333333333902  0.339552238805969  1.0000
  Ti  Ti185     1.0  0.8095238095238146  0.20952380952380112  0.34328358208955073  1.0000
  Ti  Ti186     1.0  0.309523809523806  0.709523809523826  0.3432835820895522  1.0000
  Ti  Ti187     1.0  0.7857142857142755  0.88571428571432  0.3470149253731339  1.0000
  Ti  Ti188     1.0  0.28571428571426366  0.38571428571433425  0.34701492537313533  1.0000
  Ti  Ti189     1.0  0.7619047619047666  0.5619047619047607  0.3507462686567152  1.0000
  Ti  Ti190     1.0  0.26190476190475215  0.06190476190477855  0.35074626865671665  1.0000
  Ti  Ti191     1.0  0.7380952380952438  0.23809523809523353  0.3544776119402965  1.0000
  Ti  Ti192     1.0  0.23809523809522923  0.7380952380952656  0.3544776119402979  1.0000
  Ti  Ti193     1.0  0.714285714285699  0.914285714285756  0.35820895522387963  1.0000
  Ti  Ti194     1.0  0.21428571428570375  0.41428571428574185  0.3582089552238811  1.0000
  Ti  Ti195     1.0  0.690476190476193  0.5904761904761968  0.36194029850746096  1.0000
  Ti  Ti196     1.0  0.19047619047617825  0.09047619047621454  0.3619402985074624  1.0000
  Ti  Ti197     1.0  0.6666666666666675  0.2666666666666695  0.3656716417910441  1.0000
  Ti  Ti198     1.0  0.16666666666665278  0.7666666666667015  0.36567164179104555  1.0000
  Ti  Ti199     1.0  0.6428571428571555  0.9428571428571281  0.36940298507462355  1.0000
  Ti  Ti200     1.0  0.14285714285714127  0.4428571428571457  0.3694029850746249  1.0000
  Ti  Ti201     1.0  0.6190476190476132  0.6190476190476364  0.3731343283582067  1.0000
  Ti  Ti202     1.0  0.11904761904762128  0.11904761904761856  0.37313432835820814  1.0000
  Ti  Ti203     1.0  0.5952380952380937  0.295238095238109  0.37686567164178986  1.0000
  Ti  Ti204     1.0  0.09523809523807909  0.7952380952381375  0.3768656716417913  1.0000
  Ti  Ti205     1.0  0.5714285714285816  0.9714285714285676  0.3805970149253712  1.0000
  Ti  Ti206     1.0  0.07142857142856765  0.4714285714285818  0.3805970149253725  1.0000
  Ti  Ti207     1.0  0.5476190476190563  0.6476190476190403  0.3843283582089523  1.0000
  Ti  Ti208     1.0  0.047619047619047686  0.1476190476190545  0.3843283582089539  1.0000
  Ti  Ti209     1.0  0.5238095238095171  0.3238095238095415  0.3880597014925356  1.0000
  Ti  Ti210     1.0  0.023809523809508137  0.82380952380957  0.38805970149253705  1.0000
  Ti  Ti211     1.0  0.5000000000000053  5.838672220806777e-17  0.3917910447761169  1.0000
  Ti  Ti212     1.0  0.9999999999999966  0.5000000000000142  0.3917910447761183  1.0000
  Ti  Ti213     1.0  0.4761904761904715  0.6761904761904941  0.3955223880597014  1.0000
  Ti  Ti214     1.0  0.97619047619046  0.1761904761905083  0.395522388059703  1.0000
  Ti  Ti215     1.0  0.4523809523809575  0.35238095238094547  0.39925373134328324  1.0000
  Ti  Ti216     1.0  0.9523809523809488  0.8523809523809739  0.3992537313432828  1.0000
  Ti  Ti217     1.0  0.4285714285714235  0.028571428571439537  0.40298507462686406  1.0000
  Ti  Ti218     1.0  0.9285714285714087  0.528571428571468  0.4029850746268656  1.0000
  Ti  Ti219     1.0  0.4047619047619116  0.7047619047619053  0.40671641791044566  1.0000
  Ti  Ti220     1.0  0.9047619047618972  0.20476190476192652  0.40671641791044727  1.0000
  Ti  Ti221     1.0  0.3809523809523862  0.38095238095237083  0.41044776119402854  1.0000
  Ti  Ti222     1.0  0.8809523809523773  0.8809523809523992  0.4104477611940301  1.0000
  Ti  Ti223     1.0  0.3571428571428555  0.05714285714286486  0.4141791044776083  1.0000
  Ti  Ti224     1.0  0.8571428571428603  0.5571428571428578  0.41417910447760986  1.0000
  Ti  Ti225     1.0  0.33333333333332144  0.7333333333333661  0.417910447761193  1.0000
  Ti  Ti226     1.0  0.8333333333333126  0.23333333333337314  0.41791044776119446  1.0000
  Ti  Ti227     1.0  0.30952380952382397  0.409523809523789  0.4216417910447728  1.0000
  Ti  Ti228     1.0  0.8095238095238121  0.9095238095238175  0.42164179104477434  1.0000
  Ti  Ti229     1.0  0.28571428571429  0.08571428571427597  0.42537313432835744  1.0000
  Ti  Ti230     1.0  0.7857142857142779  0.5857142857143116  0.425373134328359  1.0000
  Ti  Ti231     1.0  0.26190476190475603  0.7619047619047843  0.4291044776119391  1.0000
  Ti  Ti232     1.0  0.7619047619047609  0.26190476190477  0.4291044776119388  1.0000
  Ti  Ti233     1.0  0.2380952380952417  0.43809523809523565  0.43283582089552  1.0000
  Ti  Ti234     1.0  0.7380952380952271  0.9380952380952713  0.4328358208955216  1.0000
  Ti  Ti235     1.0  0.2142857142857246  0.1142857142857013  0.4365671641791017  1.0000
  Ti  Ti236     1.0  0.7142857142857125  0.6142857142857298  0.4365671641791033  1.0000
  Ti  Ti237     1.0  0.19047619047618763  0.7904761904762095  0.4402985074626864  1.0000
  Ti  Ti238     1.0  0.6904761904761818  0.2904761904762167  0.4402985074626879  1.0000
  Ti  Ti239     1.0  0.16666666666667368  0.4666666666666609  0.4440298507462643  1.0000
  Ti  Ti240     1.0  0.6666666666666617  0.9666666666666894  0.44402985074626583  1.0000
  Ti  Ti241     1.0  0.14285714285713969  0.14285714285715503  0.44776119402984893  1.0000
  Ti  Ti242     1.0  0.6428571428571309  0.6428571428571762  0.4477611940298505  1.0000
  Ti  Ti243     1.0  0.11904761904762523  0.8190476190476207  0.4514925373134306  1.0000
  Ti  Ti244     1.0  0.6190476190476106  0.319047619047642  0.4514925373134322  1.0000
  Ti  Ti245     1.0  0.09523809523810822  0.49523809523807916  0.45522388059701335  1.0000
  Ti  Ti246     1.0  0.5952380952380938  0.9952380952381147  0.45522388059701496  1.0000
  Ti  Ti247     1.0  0.07142857142857427  0.17142857142856616  0.458955223880595  1.0000
  Ti  Ti248     1.0  0.5714285714285621  0.6714285714286018  0.4589552238805948  1.0000
  Ti  Ti249     1.0  0.047619047619051474  0.847619047619046  0.462686567164176  1.0000
  Ti  Ti250     1.0  0.5476190476190426  0.3476190476190602  0.4626865671641774  1.0000
  Ti  Ti251     1.0  0.023809523809540146  0.5238095238095045  0.46641791044775766  1.0000
  Ti  Ti252     1.0  0.523809523809528  0.023809523809518736  0.4664179104477592  1.0000
  Ti  Ti253     1.0  0.9999999999999837  0.20000000000002696  0.47014925373134236  1.0000
  Ti  Ti254     1.0  0.49999999999999717  0.7000000000000199  0.47014925373134386  1.0000
  Ti  Ti255     1.0  0.9761904761904886  0.8761904761904641  0.47388059701492025  1.0000
  Ti  Ti256     1.0  0.47619047619047716  0.37619047619047846  0.4738805970149218  1.0000
  Ti  Ti257     1.0  0.9523809523809552  0.5523809523809512  0.4776119402985049  1.0000
  Ti  Ti258     1.0  0.4523809523809433  0.05238095238097248  0.47761194029850645  1.0000
  Ti  Ti259     1.0  0.9285714285714215  0.22857142857144522  0.4813432835820894  1.0000
  Ti  Ti260     1.0  0.42857142857141234  0.7285714285714736  0.48134328358209105  1.0000
  Ti  Ti261     1.0  0.904761904761907  0.9047619047619109  0.4850746268656694  1.0000
  Ti  Ti262     1.0  0.4047619047619064  0.40476190476190377  0.48507462686567093  1.0000
  Ti  Ti263     1.0  0.8809523809523673  0.5809523809524121  0.4888059701492539  1.0000
  Ti  Ti264     1.0  0.380952380952361  0.08095238095241912  0.4888059701492536  1.0000
  Ti  Ti265     1.0  0.8571428571428558  0.25714285714286345  0.49253731343283386  1.0000
  Ti  Ti266     1.0  0.35714285714284966  0.757142857142892  0.4925373134328354  1.0000
  Ti  Ti267     1.0  0.833333333333333  0.9333333333333362  0.49626865671641646  1.0000
  Ti  Ti268     1.0  0.3333333333333269  0.4333333333333504  0.49626865671641807  1.0000
  Ti  Ti269     1.0  0.9047619047619049  0.7047619047619146  0.9813432835820898  1.0000
  Ti  Ti270     1.0  0.4047619047619047  0.20476190476190817  0.9813432835820898  1.0000
  Ti  Ti271     1.0  0.8809523809523813  0.3809523809523857  0.9776119402985077  1.0000
  Ti  Ti272     1.0  0.38095238095238126  0.8809523809523933  0.9776119402985077  1.0000
  Ti  Ti273     1.0  0.8571428571428561  0.05714285714285975  0.9738805970149256  1.0000
  Ti  Ti274     1.0  0.3571428571428565  0.5571428571428666  0.9738805970149255  1.0000
  Ti  Ti275     1.0  0.8333333333333327  0.7333333333333453  0.9701492537313434  1.0000
  Ti  Ti276     1.0  0.33333333333333276  0.23333333333333783  0.9701492537313434  1.0000
  Ti  Ti277     1.0  0.8095238095238096  0.40952380952381484  0.9664179104477616  1.0000
  Ti  Ti278     1.0  0.3095238095238091  0.9095238095238233  0.9664179104477616  1.0000
  Ti  Ti279     1.0  0.7857142857142864  0.08571428571428528  0.9626865671641797  1.0000
  Ti  Ti280     1.0  0.2857142857142857  0.5857142857142943  0.9626865671641796  1.0000
  Ti  Ti281     1.0  0.7619047619047626  0.7619047619047714  0.9589552238805976  1.0000
  Ti  Ti282     1.0  0.2619047619047628  0.26190476190476425  0.9589552238805976  1.0000
  Ti  Ti283     1.0  0.7380952380952395  0.4380952380952414  0.9552238805970155  1.0000
  Ti  Ti284     1.0  0.23809523809523875  0.9380952380952504  0.9552238805970154  1.0000
  Ti  Ti285     1.0  0.7142857142857124  0.1142857142857195  0.9514925373134332  1.0000
  Ti  Ti286     1.0  0.21428571428571366  0.6142857142857246  0.9514925373134332  1.0000
  Ti  Ti287     1.0  0.6904761904761896  0.7904761904762034  0.9477611940298513  1.0000
  Ti  Ti288     1.0  0.19047619047618972  0.2904761904761967  0.9477611940298512  1.0000
  Ti  Ti289     1.0  0.6666666666666651  0.46666666666667606  0.944029850746269  1.0000
  Ti  Ti290     1.0  0.16666666666666674  0.9666666666666804  0.944029850746269  1.0000
  Ti  Ti291     1.0  0.6428571428571425  0.14285714285714618  0.940298507462687  1.0000
  Ti  Ti292     1.0  0.14285714285714185  0.6428571428571542  0.9402985074626867  1.0000
  Ti  Ti293     1.0  0.6190476190476193  0.8190476190476297  0.9365671641791049  1.0000
  Ti  Ti294     1.0  0.11904761904762023  0.3190476190476216  0.9365671641791049  1.0000
  Ti  Ti295     1.0  0.5952380952380969  0.49523809523809964  0.9328358208955229  1.0000
  Ti  Ti296     1.0  0.0952380952380964  0.9952380952381077  0.9328358208955227  1.0000
  Ti  Ti297     1.0  0.571428571428573  0.17142857142857057  0.9291044776119411  1.0000
  Ti  Ti298     1.0  0.07142857142857341  0.6714285714285777  0.9291044776119413  1.0000
  Ti  Ti299     1.0  0.5476190476190496  0.8476190476190549  0.9253731343283589  1.0000
  Ti  Ti300     1.0  0.04761904761904889  0.3476190476190514  0.925373134328359  1.0000
  Ti  Ti301     1.0  0.5238095238095251  0.5238095238095285  0.9216417910447771  1.0000
  Ti  Ti302     1.0  0.023809523809526913  0.023809523809517848  0.9216417910447773  1.0000
  Ti  Ti303     1.0  0.4999999999999999  0.20000000000000212  0.9179104477611946  1.0000
  Ti  Ti304     1.0  0.9999999999999974  0.7000000000000137  0.9179104477611943  1.0000
  Ti  Ti305     1.0  0.47619047619047855  0.8761904761904828  0.9141791044776127  1.0000
  Ti  Ti306     1.0  0.9761904761904767  0.37619047619048024  0.9141791044776125  1.0000
  Ti  Ti307     1.0  0.45238095238095366  0.5523809523809574  0.9104477611940305  1.0000
  Ti  Ti308     1.0  0.9523809523809519  0.052380952380953825  0.9104477611940303  1.0000
  Ti  Ti309     1.0  0.4285714285714247  0.228571428571439  0.9067164179104482  1.0000
  Ti  Ti310     1.0  0.928571428571427  0.7285714285714416  0.906716417910448  1.0000
  Ti  Ti311     1.0  0.4047619047619034  0.9047619047619196  0.9029850746268664  1.0000
  Ti  Ti312     1.0  0.9047619047619058  0.4047619047619082  0.9029850746268663  1.0000
  Ti  Ti313     1.0  0.3809523809523793  0.5809523809523924  0.8992537313432841  1.0000
  Ti  Ti314     1.0  0.8809523809523809  0.0809523809523827  0.899253731343284  1.0000
  Ti  Ti315     1.0  0.3571428571428559  0.25714285714286345  0.895522388059702  1.0000
  Ti  Ti316     1.0  0.8571428571428594  0.7571428571428634  0.8955223880597022  1.0000
  Ti  Ti317     1.0  0.33333333333333043  0.9333333333333521  0.8917910447761198  1.0000
  Ti  Ti318     1.0  0.8333333333333355  0.4333333333333362  0.8917910447761199  1.0000
  Ti  Ti319     1.0  0.3095238095238104  0.6095238095238161  0.8880597014925382  1.0000
  Ti  Ti320     1.0  0.8095238095238134  0.1095238095238036  0.8880597014925383  1.0000
  Ti  Ti321     1.0  0.2857142857142849  0.28571428571429236  0.8843283582089557  1.0000
  Ti  Ti322     1.0  0.7857142857142845  0.7857142857142992  0.8843283582089562  1.0000
  Ti  Ti323     1.0  0.2619047619047628  0.9619047619047723  0.8805970149253742  1.0000
  Ti  Ti324     1.0  0.7619047619047636  0.46190476190476504  0.8805970149253743  1.0000
  Ti  Ti325     1.0  0.2380952380952388  0.6380952380952449  0.876865671641792  1.0000
  Ti  Ti326     1.0  0.738095238095239  0.13809523809523952  0.8768656716417921  1.0000
  Ti  Ti327     1.0  0.21428571428571394  0.31428571428571944  0.8731343283582097  1.0000
  Ti  Ti328     1.0  0.7142857142857139  0.8142857142857266  0.8731343283582099  1.0000
  Ti  Ti329     1.0  0.19047619047619402  0.9904761904761993  0.869402985074628  1.0000
  Ti  Ti330     1.0  0.6904761904761928  0.49047619047619395  0.8694029850746281  1.0000
  Ti  Ti331     1.0  0.16666666666666843  0.6666666666666738  0.8656716417910457  1.0000
  Ti  Ti332     1.0  0.6666666666666672  0.16666666666666846  0.8656716417910458  1.0000
  Ti  Ti333     1.0  0.14285714285714576  0.34285714285714114  0.8619402985074638  1.0000
  Ti  Ti334     1.0  0.6428571428571481  0.8428571428571465  0.861940298507464  1.0000
  Ti  Ti335     1.0  0.11904761904762161  0.01904761904761392  0.8582089552238816  1.0000
  Ti  Ti336     1.0  0.6190476190476217  0.5190476190476229  0.8582089552238817  1.0000
  Ti  Ti337     1.0  0.09523809523809888  0.6952380952380955  0.8544776119402994  1.0000
  Ti  Ti338     1.0  0.5952380952381012  0.19523809523808663  0.8544776119403001  1.0000
  Ti  Ti339     1.0  0.07142857142857756  0.37142857142856833  0.8507462686567171  1.0000
  Ti  Ti340     1.0  0.5714285714285755  0.8714285714285754  0.850746268656718  1.0000
  Ti  Ti341     1.0  0.047619047619050676  0.0476190476190428  0.847014925373136  1.0000
  Ti  Ti342     1.0  0.5476190476190544  0.5476190476190428  0.8470149253731362  1.0000
  Ti  Ti343     1.0  0.023809523809516783  0.7238095238095476  0.8432835820895521  1.0000
  Ti  Ti344     1.0  0.523809523809522  0.22380952380953154  0.8432835820895522  1.0000
  Ti  Ti345     1.0  8.733757329559545e-17  0.40000000000000424  0.8395522388059706  1.0000
  Ti  Ti346     1.0  0.49999999999999895  0.9000000000000132  0.839552238805971  1.0000
  Ti  Ti347     1.0  0.9761904761904755  0.07619047619047878  0.8358208955223885  1.0000
  Ti  Ti348     1.0  0.47619047619048066  0.576190476190477  0.8358208955223897  1.0000
  Ti  Ti349     1.0  0.9523809523809571  0.7523809523809515  0.8320895522388073  1.0000
  Ti  Ti350     1.0  0.45238095238095793  0.25238095238094443  0.8320895522388074  1.0000
  Ti  Ti351     1.0  0.928571428571426  0.42857142857144026  0.8283582089552239  1.0000
  Ti  Ti352     1.0  0.4285714285714242  0.928571428571449  0.8283582089552243  1.0000
  Ti  Ti353     1.0  0.9047619047619073  0.10476190476190056  0.8246268656716428  1.0000
  Ti  Ti354     1.0  0.4047619047619082  0.6047619047619059  0.824626865671643  1.0000
  Ti  Ti355     1.0  0.8809523809523834  0.7809523809523875  0.8208955223880606  1.0000
  Ti  Ti356     1.0  0.3809523809523827  0.28095238095238034  0.8208955223880617  1.0000
  Ti  Ti357     1.0  0.8571428571428494  0.457142857142878  0.8171641791044784  1.0000
  Ti  Ti358     1.0  0.35714285714285987  0.9571428571428674  0.8171641791044785  1.0000
  Ti  Ti359     1.0  0.8333333333333337  0.13333333333333475  0.8134328358208962  1.0000
  Ti  Ti360     1.0  0.33333333333333315  0.633333333333342  0.8134328358208962  1.0000
  Ti  Ti361     1.0  0.8095238095238064  0.8095238095238253  0.8097014925373149  1.0000
  Ti  Ti362     1.0  0.30952380952381603  0.30952380952380215  0.809701492537315  1.0000
  Ti  Ti363     1.0  0.7857142857142909  0.4857142857142838  0.8059701492537324  1.0000
  Ti  Ti364     1.0  0.285714285714289  0.9857142857142909  0.8059701492537337  1.0000
  Ti  Ti365     1.0  0.7619047619047584  0.16190476190477074  0.8022388059701502  1.0000
  Ti  Ti366     1.0  0.26190476190476647  0.6619047619047637  0.8022388059701506  1.0000
  Ti  Ti367     1.0  0.7380952380952357  0.8380952380952542  0.7985074626865674  1.0000
  Ti  Ti368     1.0  0.23809523809523792  0.3380952380952435  0.7985074626865675  1.0000
  Ti  Ti369     1.0  0.7142857142857117  0.5142857142857269  0.7947761194029862  1.0000
  Ti  Ti370     1.0  0.21428571428571122  0.014285714285719769  0.7947761194029863  1.0000
  Ti  Ti371     1.0  0.6904761904761931  0.19047619047618541  0.7910447761194039  1.0000
  Ti  Ti372     1.0  0.19047619047619402  0.6904761904761926  0.7910447761194048  1.0000
  Ti  Ti373     1.0  0.6666666666666607  0.86666666666669  0.7873134328358218  1.0000
  Ti  Ti374     1.0  0.16666666666666005  0.36666666666668307  0.7873134328358219  1.0000
  Ti  Ti375     1.0  0.6428571428571449  0.5428571428571451  0.7835820895522395  1.0000
  Ti  Ti376     1.0  0.14285714285713877  0.042857142857148645  0.7835820895522387  1.0000
  Ti  Ti377     1.0  0.619047619047621  0.21904761904761783  0.779850746268658  1.0000
  Ti  Ti378     1.0  0.11904761904761453  0.7190476190476357  0.7798507462686576  1.0000
  Ti  Ti379     1.0  0.5952380952380937  0.8952380952381119  0.776119402985075  1.0000
  Ti  Ti380     1.0  0.09523809523809054  0.39523809523811193  0.7761194029850743  1.0000
  Ti  Ti381     1.0  0.5714285714285698  0.5714285714285847  0.7723880597014936  1.0000
  Ti  Ti382     1.0  0.07142857142856507  0.07142857142858462  0.7723880597014932  1.0000
  Ti  Ti383     1.0  0.5476190476190541  0.24761904761903958  0.7686567164179114  1.0000
  Ti  Ti384     1.0  0.04761904761904658  0.7476190476190574  0.7686567164179109  1.0000
  Ti  Ti385     1.0  0.5238095238095255  0.9238095238095301  0.7649253731343303  1.0000
  Ti  Ti386     1.0  0.023809523809522462  0.42380952380953  0.7649253731343294  1.0000
  Ti  Ti387     1.0  0.49999999999999184  0.6000000000000206  0.7611940298507469  1.0000
  Ti  Ti388     1.0  0.9999999999999983  0.1000000000000064  0.7611940298507465  1.0000
  Ti  Ti389     1.0  0.4761904761904776  0.2761904761904756  0.7574626865671658  1.0000
  Ti  Ti390     1.0  0.9761904761904728  0.7761904761904934  0.7574626865671651  1.0000
  Ti  Ti391     1.0  0.4523809523809534  0.9523809523809625  0.7537313432835835  1.0000
  Ti  Ti392     1.0  0.9523809523809571  0.45238095238094833  0.7537313432835828  1.0000
  Ti  Ti393     1.0  0.4285714285714279  0.6285714285714389  0.7500000000000013  1.0000
  Ti  Ti394     1.0  0.9285714285714218  0.12857142857144238  0.7500000000000006  1.0000
  Ti  Ti395     1.0  0.4047619047619038  0.30476190476191156  0.7462686567164191  1.0000
  Ti  Ti396     1.0  0.9047619047619047  0.8047619047619151  0.7462686567164183  1.0000
  Ti  Ti397     1.0  0.38095238095238804  0.9809523809523842  0.7425373134328377  1.0000
  Ti  Ti398     1.0  0.8809523809523806  0.4809523809523879  0.7425373134328371  1.0000
  Ti  Ti399     1.0  0.3571428571428583  0.6571428571428606  0.7388059701492554  1.0000
  Ti  Ti400     1.0  0.8571428571428549  0.15714285714286416  0.738805970149255  1.0000
  Ti  Ti401     1.0  0.33333333333333703  0.33333333333333337  0.7350746268656732  1.0000
  Ti  Ti402     1.0  0.8333333333333309  0.8333333333333511  0.7350746268656727  1.0000
  Ti  Ti403     1.0  0.30952380952381003  0.009523809523806073  0.731343283582091  1.0000
  Ti  Ti404     1.0  0.809523809523804  0.5095238095238239  0.7313432835820906  1.0000
  Ti  Ti405     1.0  0.2857142857142915  0.6857142857142823  0.7276119402985097  1.0000
  Ti  Ti406     1.0  0.7857142857142897  0.18571428571427878  0.7276119402985091  1.0000
  Ti  Ti407     1.0  0.2619047619047606  0.3619047619047692  0.7238805970149266  1.0000
  Ti  Ti408     1.0  0.7619047619047572  0.8619047619047872  0.723880597014926  1.0000
  Ti  Ti409     1.0  0.23809523809524322  0.03809523809522784  0.7201492537313454  1.0000
  Ti  Ti410     1.0  0.7380952380952398  0.5380952380952421  0.7201492537313445  1.0000
  Ti  Ti411     1.0  0.21428571428572066  0.7142857142857147  0.7164179104477639  1.0000
  Ti  Ti412     1.0  0.7142857142857144  0.21428571428571835  0.7164179104477624  1.0000
  Ti  Ti413     1.0  0.1904761904761978  0.3904761904761769  0.7126865671641809  1.0000
  Ti  Ti414     1.0  0.6904761904761976  0.890476190476191  0.7126865671641812  1.0000
  Ti  Ti415     1.0  0.16666666666666677  0.06666666666666382  0.7089552238805994  1.0000
  Ti  Ti416     1.0  0.6666666666666634  0.5666666666666816  0.708955223880598  1.0000
  Ti  Ti417     1.0  0.14285714285715512  0.7428571428571367  0.7052238805970164  1.0000
  Ti  Ti418     1.0  0.642857142857149  0.24285714285713658  0.7052238805970168  1.0000
  Ti  Ti419     1.0  0.1190476190476212  0.4190476190476271  0.701492537313435  1.0000
  Ti  Ti420     1.0  0.6190476190476124  0.9190476190476449  0.7014925373134334  1.0000
  Ti  Ti421     1.0  0.09523809523810135  0.0952380952380856  0.6977611940298539  1.0000
  Ti  Ti422     1.0  0.5952380952381036  0.5952380952380857  0.6977611940298523  1.0000
  Ti  Ti423     1.0  0.07142857142857026  0.7714285714285868  0.6940298507462693  1.0000
  Ti  Ti424     1.0  0.5714285714285615  0.27142857142859034  0.6940298507462695  1.0000
  Ti  Ti425     1.0  0.047619047619033655  0.44761904761908083  0.6902985074626861  1.0000
  Ti  Ti426     1.0  0.5476190476190387  0.9476190476190771  0.6902985074626864  1.0000
  Ti  Ti427     1.0  0.023809523809524828  0.12380952380952158  0.6865671641791067  1.0000
  Ti  Ti428     1.0  0.5238095238095132  0.6238095238095536  0.6865671641791051  1.0000
  Ti  Ti429     1.0  0.9999999999999997  0.8000000000000085  0.6828358208955234  1.0000
  Ti  Ti430     1.0  0.49999999999998745  0.3000000000000263  0.6828358208955219  1.0000
  Ti  Ti431     1.0  0.9761904761904767  0.47619047619048127  0.6791044776119419  1.0000
  Ti  Ti432     1.0  0.47619047619047034  0.976190476190499  0.6791044776119407  1.0000
  Ti  Ti433     1.0  0.9523809523809512  0.15238095238095756  0.675373134328359  1.0000
  Ti  Ti434     1.0  0.4523809523809366  0.6523809523809896  0.6753731343283573  1.0000
  Ti  Ti435     1.0  0.928571428571426  0.8285714285714445  0.6716417910447778  1.0000
  Ti  Ti436     1.0  0.428571428571411  0.3285714285714623  0.6716417910447762  1.0000
  Ti  Ti437     1.0  0.9047619047619141  0.5047619047618889  0.6679104477611963  1.0000
  Ti  Ti438     1.0  0.40476190476190516  0.004761904761903036  0.6679104477611948  1.0000
  Ti  Ti439     1.0  0.8809523809523773  0.18095238095239355  0.6641791044776133  1.0000
  Ti  Ti440     1.0  0.3809523809523629  0.6809523809524256  0.6641791044776117  1.0000
  Ti  Ti441     1.0  0.8571428571428519  0.8571428571428805  0.6604477611940299  1.0000
  Ti  Ti442     1.0  0.3571428571428375  0.35714285714289823  0.6604477611940285  1.0000
  Ti  Ti443     1.0  0.83333333333334  0.5333333333333249  0.6567164179104507  1.0000
  Ti  Ti444     1.0  0.33333333333333154  0.03333333333333902  0.6567164179104492  1.0000
  Ti  Ti445     1.0  0.8095238095238146  0.20952380952380112  0.6529850746268674  1.0000
  Ti  Ti446     1.0  0.309523809523806  0.709523809523826  0.6529850746268658  1.0000
  Ti  Ti447     1.0  0.7857142857142755  0.88571428571432  0.6492537313432845  1.0000
  Ti  Ti448     1.0  0.28571428571426366  0.38571428571433425  0.6492537313432828  1.0000
  Ti  Ti449     1.0  0.7619047619047666  0.5619047619047607  0.645522388059703  1.0000
  Ti  Ti450     1.0  0.26190476190475215  0.06190476190477855  0.6455223880597013  1.0000
  Ti  Ti451     1.0  0.7380952380952438  0.23809523809523353  0.6417910447761218  1.0000
  Ti  Ti452     1.0  0.23809523809522923  0.7380952380952656  0.6417910447761203  1.0000
  Ti  Ti453     1.0  0.714285714285699  0.914285714285756  0.6380597014925384  1.0000
  Ti  Ti454     1.0  0.21428571428570375  0.41428571428574185  0.638059701492537  1.0000
  Ti  Ti455     1.0  0.690476190476193  0.5904761904761968  0.6343283582089573  1.0000
  Ti  Ti456     1.0  0.19047619047617825  0.09047619047621454  0.6343283582089558  1.0000
  Ti  Ti457     1.0  0.6666666666666675  0.2666666666666695  0.630597014925374  1.0000
  Ti  Ti458     1.0  0.16666666666665278  0.7666666666667015  0.6305970149253725  1.0000
  Ti  Ti459     1.0  0.6428571428571555  0.9428571428571281  0.6268656716417947  1.0000
  Ti  Ti460     1.0  0.14285714285714127  0.4428571428571457  0.6268656716417933  1.0000
  Ti  Ti461     1.0  0.6190476190476132  0.6190476190476364  0.6231343283582115  1.0000
  Ti  Ti462     1.0  0.11904761904762128  0.11904761904761856  0.6231343283582098  1.0000
  Ti  Ti463     1.0  0.5952380952380937  0.295238095238109  0.6194029850746284  1.0000
  Ti  Ti464     1.0  0.09523809523807909  0.7952380952381375  0.6194029850746269  1.0000
  Ti  Ti465     1.0  0.5714285714285816  0.9714285714285676  0.6156716417910469  1.0000
  Ti  Ti466     1.0  0.07142857142856765  0.4714285714285818  0.6156716417910455  1.0000
  Ti  Ti467     1.0  0.5476190476190563  0.6476190476190403  0.6119402985074659  1.0000
  Ti  Ti468     1.0  0.047619047619047686  0.1476190476190545  0.6119402985074643  1.0000
  Ti  Ti469     1.0  0.5238095238095171  0.3238095238095415  0.6082089552238825  1.0000
  Ti  Ti470     1.0  0.023809523809508137  0.82380952380957  0.608208955223881  1.0000
  Ti  Ti471     1.0  0.5000000000000053  5.838672220806777e-17  0.6044776119403014  1.0000
  Ti  Ti472     1.0  0.9999999999999966  0.5000000000000142  0.6044776119402998  1.0000
  Ti  Ti473     1.0  0.4761904761904715  0.6761904761904941  0.6007462686567167  1.0000
  Ti  Ti474     1.0  0.97619047619046  0.1761904761905083  0.600746268656715  1.0000
  Ti  Ti475     1.0  0.4523809523809575  0.35238095238094547  0.597014925373135  1.0000
  Ti  Ti476     1.0  0.9523809523809488  0.8523809523809739  0.5970149253731354  1.0000
  Ti  Ti477     1.0  0.4285714285714235  0.028571428571439537  0.593283582089554  1.0000
  Ti  Ti478     1.0  0.9285714285714087  0.528571428571468  0.5932835820895527  1.0000
  Ti  Ti479     1.0  0.4047619047619116  0.7047619047619053  0.5895522388059725  1.0000
  Ti  Ti480     1.0  0.9047619047618972  0.20476190476192652  0.589552238805971  1.0000
  Ti  Ti481     1.0  0.3809523809523862  0.38095238095237083  0.5858208955223895  1.0000
  Ti  Ti482     1.0  0.8809523809523773  0.8809523809523992  0.5858208955223883  1.0000
  Ti  Ti483     1.0  0.3571428571428555  0.05714285714286486  0.5820895522388099  1.0000
  Ti  Ti484     1.0  0.8571428571428603  0.5571428571428578  0.5820895522388083  1.0000
  Ti  Ti485     1.0  0.33333333333332144  0.7333333333333661  0.578358208955225  1.0000
  Ti  Ti486     1.0  0.8333333333333126  0.23333333333337314  0.5783582089552238  1.0000
  Ti  Ti487     1.0  0.30952380952382397  0.409523809523789  0.5746268656716454  1.0000
  Ti  Ti488     1.0  0.8095238095238121  0.9095238095238175  0.5746268656716439  1.0000
  Ti  Ti489     1.0  0.28571428571429  0.08571428571427597  0.5708955223880606  1.0000
  Ti  Ti490     1.0  0.7857142857142779  0.5857142857143116  0.5708955223880593  1.0000
  Ti  Ti491     1.0  0.26190476190475603  0.7619047619047843  0.567164179104479  1.0000
  Ti  Ti492     1.0  0.7619047619047609  0.26190476190477  0.5671641791044795  1.0000
  Ti  Ti493     1.0  0.2380952380952417  0.43809523809523565  0.5634328358208981  1.0000
  Ti  Ti494     1.0  0.7380952380952271  0.9380952380952713  0.5634328358208968  1.0000
  Ti  Ti495     1.0  0.2142857142857246  0.1142857142857013  0.5597014925373165  1.0000
  Ti  Ti496     1.0  0.7142857142857125  0.6142857142857298  0.5597014925373149  1.0000
  Ti  Ti497     1.0  0.19047619047618763  0.7904761904762095  0.5559701492537317  1.0000
  Ti  Ti498     1.0  0.6904761904761818  0.2904761904762167  0.5559701492537303  1.0000
  Ti  Ti499     1.0  0.16666666666667368  0.4666666666666609  0.552238805970154  1.0000
  Ti  Ti500     1.0  0.6666666666666617  0.9666666666666894  0.5522388059701523  1.0000
  Ti  Ti501     1.0  0.14285714285713969  0.14285714285715503  0.5485074626865691  1.0000
  Ti  Ti502     1.0  0.6428571428571309  0.6428571428571762  0.5485074626865678  1.0000
  Ti  Ti503     1.0  0.11904761904762523  0.8190476190476207  0.5447761194029875  1.0000
  Ti  Ti504     1.0  0.6190476190476106  0.319047619047642  0.544776119402986  1.0000
  Ti  Ti505     1.0  0.09523809523810822  0.49523809523807916  0.5410447761194047  1.0000
  Ti  Ti506     1.0  0.5952380952380938  0.9952380952381147  0.5410447761194034  1.0000
  Ti  Ti507     1.0  0.07142857142857427  0.17142857142856616  0.5373134328358232  1.0000
  Ti  Ti508     1.0  0.5714285714285621  0.6714285714286018  0.5373134328358233  1.0000
  Ti  Ti509     1.0  0.047619047619051474  0.847619047619046  0.5335820895522421  1.0000
  Ti  Ti510     1.0  0.5476190476190426  0.3476190476190602  0.5335820895522407  1.0000
  Ti  Ti511     1.0  0.023809523809540146  0.5238095238095045  0.5298507462686604  1.0000
  Ti  Ti512     1.0  0.523809523809528  0.023809523809518736  0.5298507462686589  1.0000
  Ti  Ti513     1.0  0.9999999999999837  0.20000000000002696  0.5261194029850758  1.0000
  Ti  Ti514     1.0  0.49999999999999717  0.7000000000000199  0.5261194029850743  1.0000
  Ti  Ti515     1.0  0.9761904761904886  0.8761904761904641  0.5223880597014978  1.0000
  Ti  Ti516     1.0  0.47619047619047716  0.37619047619047846  0.5223880597014963  1.0000
  Ti  Ti517     1.0  0.9523809523809552  0.5523809523809512  0.5186567164179133  1.0000
  Ti  Ti518     1.0  0.4523809523809433  0.05238095238097248  0.5186567164179117  1.0000
  Ti  Ti519     1.0  0.9285714285714215  0.22857142857144522  0.5149253731343286  1.0000
  Ti  Ti520     1.0  0.42857142857141234  0.7285714285714736  0.5149253731343271  1.0000
