data_image0
_chemical_formula_structural       Ti2000
_chemical_formula_sum              "Ti2000"
_cell_length_a       32.5164
_cell_length_b       32.5164
_cell_length_c       32.5164
_cell_angle_alpha    90
_cell_angle_beta     90
_cell_angle_gamma    90

_space_group_name_H-M_alt    "P 1"
_space_group_IT_number       1

loop_
  _space_group_symop_operation_xyz
  'x, y, z'

loop_
  _atom_site_type_symbol
  _atom_site_label
  _atom_site_symmetry_multiplicity
  _atom_site_fract_x
  _atom_site_fract_y
  _atom_site_fract_z
  _atom_site_occupancy
  Ti  Ti1       1.0  0.00000  0.00000  0.00000  1.0000
  Ti  Ti2       1.0  0.05000  0.05000  0.05000  1.0000
  Ti  Ti3       1.0  0.00000  0.00000  0.10000  1.0000
  Ti  Ti4       1.0  0.05000  0.05000  0.15000  1.0000
  Ti  Ti5       1.0  0.00000  0.00000  0.20000  1.0000
  Ti  Ti6       1.0  0.05000  0.05000  0.25000  1.0000
  Ti  Ti7       1.0  0.00000  0.00000  0.30000  1.0000
  Ti  Ti8       1.0  0.05000  0.05000  0.35000  1.0000
  Ti  Ti9       1.0  0.00000  0.00000  0.40000  1.0000
  Ti  Ti10      1.0  0.05000  0.05000  0.45000  1.0000
  Ti  Ti11      1.0  0.00000  0.00000  0.50000  1.0000
  Ti  Ti12      1.0  0.05000  0.05000  0.55000  1.0000
  Ti  Ti13      1.0  0.00000  0.00000  0.60000  1.0000
  Ti  Ti14      1.0  0.05000  0.05000  0.65000  1.0000
  Ti  Ti15      1.0  0.00000  0.00000  0.70000  1.0000
  Ti  Ti16      1.0  0.05000  0.05000  0.75000  1.0000
  Ti  Ti17      1.0  0.00000  0.00000  0.80000  1.0000
  Ti  Ti18      1.0  0.05000  0.05000  0.85000  1.0000
  Ti  Ti19      1.0  0.00000  0.00000  0.90000  1.0000
  Ti  Ti20      1.0  0.05000  0.05000  0.95000  1.0000
  Ti  Ti21      1.0  0.00000  0.10000  0.00000  1.0000
  Ti  Ti22      1.0  0.05000  0.15000  0.05000  1.0000
  Ti  Ti23      1.0  0.00000  0.10000  0.10000  1.0000
  Ti  Ti24      1.0  0.05000  0.15000  0.15000  1.0000
  Ti  Ti25      1.0  0.00000  0.10000  0.20000  1.0000
  Ti  Ti26      1.0  0.05000  0.15000  0.25000  1.0000
  Ti  Ti27      1.0  0.00000  0.10000  0.30000  1.0000
  Ti  Ti28      1.0  0.05000  0.15000  0.35000  1.0000
  Ti  Ti29      1.0  0.00000  0.10000  0.40000  1.0000
  Ti  Ti30      1.0  0.05000  0.15000  0.45000  1.0000
  Ti  Ti31      1.0  0.00000  0.10000  0.50000  1.0000
  Ti  Ti32      1.0  0.05000  0.15000  0.55000  1.0000
  Ti  Ti33      1.0  0.00000  0.10000  0.60000  1.0000
  Ti  Ti34      1.0  0.05000  0.15000  0.65000  1.0000
  Ti  Ti35      1.0  0.00000  0.10000  0.70000  1.0000
  Ti  Ti36      1.0  0.05000  0.15000  0.75000  1.0000
  Ti  Ti37      1.0  0.00000  0.10000  0.80000  1.0000
  Ti  Ti38      1.0  0.05000  0.15000  0.85000  1.0000
  Ti  Ti39      1.0  0.00000  0.10000  0.90000  1.0000
  Ti  Ti40      1.0  0.05000  0.15000  0.95000  1.0000
  Ti  Ti41      1.0  0.00000  0.20000  0.00000  1.0000
  Ti  Ti42      1.0  0.05000  0.25000  0.05000  1.0000
  Ti  Ti43      1.0  0.00000  0.20000  0.10000  1.0000
  Ti  Ti44      1.0  0.05000  0.25000  0.15000  1.0000
  Ti  Ti45      1.0  0.00000  0.20000  0.20000  1.0000
  Ti  Ti46      1.0  0.05000  0.25000  0.25000  1.0000
  Ti  Ti47      1.0  0.00000  0.20000  0.30000  1.0000
  Ti  Ti48      1.0  0.05000  0.25000  0.35000  1.0000
  Ti  Ti49      1.0  0.00000  0.20000  0.40000  1.0000
  Ti  Ti50      1.0  0.05000  0.25000  0.45000  1.0000
  Ti  Ti51      1.0  0.00000  0.20000  0.50000  1.0000
  Ti  Ti52      1.0  0.05000  0.25000  0.55000  1.0000
  Ti  Ti53      1.0  0.00000  0.20000  0.60000  1.0000
  Ti  Ti54      1.0  0.05000  0.25000  0.65000  1.0000
  Ti  Ti55      1.0  0.00000  0.20000  0.70000  1.0000
  Ti  Ti56      1.0  0.05000  0.25000  0.75000  1.0000
  Ti  Ti57      1.0  0.00000  0.20000  0.80000  1.0000
  Ti  Ti58      1.0  0.05000  0.25000  0.85000  1.0000
  Ti  Ti59      1.0  0.00000  0.20000  0.90000  1.0000
  Ti  Ti60      1.0  0.05000  0.25000  0.95000  1.0000
  Ti  Ti61      1.0  0.00000  0.30000  0.00000  1.0000
  Ti  Ti62      1.0  0.05000  0.35000  0.05000  1.0000
  Ti  Ti63      1.0  0.00000  0.30000  0.10000  1.0000
  Ti  Ti64      1.0  0.05000  0.35000  0.15000  1.0000
  Ti  Ti65      1.0  0.00000  0.30000  0.20000  1.0000
  Ti  Ti66      1.0  0.05000  0.35000  0.25000  1.0000
  Ti  Ti67      1.0  0.00000  0.30000  0.30000  1.0000
  Ti  Ti68      1.0  0.05000  0.35000  0.35000  1.0000
  Ti  Ti69      1.0  0.00000  0.30000  0.40000  1.0000
  Ti  Ti70      1.0  0.05000  0.35000  0.45000  1.0000
  Ti  Ti71      1.0  0.00000  0.30000  0.50000  1.0000
  Ti  Ti72      1.0  0.05000  0.35000  0.55000  1.0000
  Ti  Ti73      1.0  0.00000  0.30000  0.60000  1.0000
  Ti  Ti74      1.0  0.05000  0.35000  0.65000  1.0000
  Ti  Ti75      1.0  0.00000  0.30000  0.70000  1.0000
  Ti  Ti76      1.0  0.05000  0.35000  0.75000  1.0000
  Ti  Ti77      1.0  0.00000  0.30000  0.80000  1.0000
  Ti  Ti78      1.0  0.05000  0.35000  0.85000  1.0000
  Ti  Ti79      1.0  0.00000  0.30000  0.90000  1.0000
  Ti  Ti80      1.0  0.05000  0.35000  0.95000  1.0000
  Ti  Ti81      1.0  0.00000  0.40000  0.00000  1.0000
  Ti  Ti82      1.0  0.05000  0.45000  0.05000  1.0000
  Ti  Ti83      1.0  0.00000  0.40000  0.10000  1.0000
  Ti  Ti84      1.0  0.05000  0.45000  0.15000  1.0000
  Ti  Ti85      1.0  0.00000  0.40000  0.20000  1.0000
  Ti  Ti86      1.0  0.05000  0.45000  0.25000  1.0000
  Ti  Ti87      1.0  0.00000  0.40000  0.30000  1.0000
  Ti  Ti88      1.0  0.05000  0.45000  0.35000  1.0000
  Ti  Ti89      1.0  0.00000  0.40000  0.40000  1.0000
  Ti  Ti90      1.0  0.05000  0.45000  0.45000  1.0000
  Ti  Ti91      1.0  0.00000  0.40000  0.50000  1.0000
  Ti  Ti92      1.0  0.05000  0.45000  0.55000  1.0000
  Ti  Ti93      1.0  0.00000  0.40000  0.60000  1.0000
  Ti  Ti94      1.0  0.05000  0.45000  0.65000  1.0000
  Ti  Ti95      1.0  0.00000  0.40000  0.70000  1.0000
  Ti  Ti96      1.0  0.05000  0.45000  0.75000  1.0000
  Ti  Ti97      1.0  0.00000  0.40000  0.80000  1.0000
  Ti  Ti98      1.0  0.05000  0.45000  0.85000  1.0000
  Ti  Ti99      1.0  0.00000  0.40000  0.90000  1.0000
  Ti  Ti100     1.0  0.05000  0.45000  0.95000  1.0000
  Ti  Ti101     1.0  0.00000  0.50000  0.00000  1.0000
  Ti  Ti102     1.0  0.05000  0.55000  0.05000  1.0000
  Ti  Ti103     1.0  0.00000  0.50000  0.10000  1.0000
  Ti  Ti104     1.0  0.05000  0.55000  0.15000  1.0000
  Ti  Ti105     1.0  0.00000  0.50000  0.20000  1.0000
  Ti  Ti106     1.0  0.05000  0.55000  0.25000  1.0000
  Ti  Ti107     1.0  0.00000  0.50000  0.30000  1.0000
  Ti  Ti108     1.0  0.05000  0.55000  0.35000  1.0000
  Ti  Ti109     1.0  0.00000  0.50000  0.40000  1.0000
  Ti  Ti110     1.0  0.05000  0.55000  0.45000  1.0000
  Ti  Ti111     1.0  0.00000  0.50000  0.50000  1.0000
  Ti  Ti112     1.0  0.05000  0.55000  0.55000  1.0000
  Ti  Ti113     1.0  0.00000  0.50000  0.60000  1.0000
  Ti  Ti114     1.0  0.05000  0.55000  0.65000  1.0000
  Ti  Ti115     1.0  0.00000  0.50000  0.70000  1.0000
  Ti  Ti116     1.0  0.05000  0.55000  0.75000  1.0000
  Ti  Ti117     1.0  0.00000  0.50000  0.80000  1.0000
  Ti  Ti118     1.0  0.05000  0.55000  0.85000  1.0000
  Ti  Ti119     1.0  0.00000  0.50000  0.90000  1.0000
  Ti  Ti120     1.0  0.05000  0.55000  0.95000  1.0000
  Ti  Ti121     1.0  0.00000  0.60000  0.00000  1.0000
  Ti  Ti122     1.0  0.05000  0.65000  0.05000  1.0000
  Ti  Ti123     1.0  0.00000  0.60000  0.10000  1.0000
  Ti  Ti124     1.0  0.05000  0.65000  0.15000  1.0000
  Ti  Ti125     1.0  0.00000  0.60000  0.20000  1.0000
  Ti  Ti126     1.0  0.05000  0.65000  0.25000  1.0000
  Ti  Ti127     1.0  0.00000  0.60000  0.30000  1.0000
  Ti  Ti128     1.0  0.05000  0.65000  0.35000  1.0000
  Ti  Ti129     1.0  0.00000  0.60000  0.40000  1.0000
  Ti  Ti130     1.0  0.05000  0.65000  0.45000  1.0000
  Ti  Ti131     1.0  0.00000  0.60000  0.50000  1.0000
  Ti  Ti132     1.0  0.05000  0.65000  0.55000  1.0000
  Ti  Ti133     1.0  0.00000  0.60000  0.60000  1.0000
  Ti  Ti134     1.0  0.05000  0.65000  0.65000  1.0000
  Ti  Ti135     1.0  0.00000  0.60000  0.70000  1.0000
  Ti  Ti136     1.0  0.05000  0.65000  0.75000  1.0000
  Ti  Ti137     1.0  0.00000  0.60000  0.80000  1.0000
  Ti  Ti138     1.0  0.05000  0.65000  0.85000  1.0000
  Ti  Ti139     1.0  0.00000  0.60000  0.90000  1.0000
  Ti  Ti140     1.0  0.05000  0.65000  0.95000  1.0000
  Ti  Ti141     1.0  0.00000  0.70000  0.00000  1.0000
  Ti  Ti142     1.0  0.05000  0.75000  0.05000  1.0000
  Ti  Ti143     1.0  0.00000  0.70000  0.10000  1.0000
  Ti  Ti144     1.0  0.05000  0.75000  0.15000  1.0000
  Ti  Ti145     1.0  0.00000  0.70000  0.20000  1.0000
  Ti  Ti146     1.0  0.05000  0.75000  0.25000  1.0000
  Ti  Ti147     1.0  0.00000  0.70000  0.30000  1.0000
  Ti  Ti148     1.0  0.05000  0.75000  0.35000  1.0000
  Ti  Ti149     1.0  0.00000  0.70000  0.40000  1.0000
  Ti  Ti150     1.0  0.05000  0.75000  0.45000  1.0000
  Ti  Ti151     1.0  0.00000  0.70000  0.50000  1.0000
  Ti  Ti152     1.0  0.05000  0.75000  0.55000  1.0000
  Ti  Ti153     1.0  0.00000  0.70000  0.60000  1.0000
  Ti  Ti154     1.0  0.05000  0.75000  0.65000  1.0000
  Ti  Ti155     1.0  0.00000  0.70000  0.70000  1.0000
  Ti  Ti156     1.0  0.05000  0.75000  0.75000  1.0000
  Ti  Ti157     1.0  0.00000  0.70000  0.80000  1.0000
  Ti  Ti158     1.0  0.05000  0.75000  0.85000  1.0000
  Ti  Ti159     1.0  0.00000  0.70000  0.90000  1.0000
  Ti  Ti160     1.0  0.05000  0.75000  0.95000  1.0000
  Ti  Ti161     1.0  0.00000  0.80000  0.00000  1.0000
  Ti  Ti162     1.0  0.05000  0.85000  0.05000  1.0000
  Ti  Ti163     1.0  0.00000  0.80000  0.10000  1.0000
  Ti  Ti164     1.0  0.05000  0.85000  0.15000  1.0000
  Ti  Ti165     1.0  0.00000  0.80000  0.20000  1.0000
  Ti  Ti166     1.0  0.05000  0.85000  0.25000  1.0000
  Ti  Ti167     1.0  0.00000  0.80000  0.30000  1.0000
  Ti  Ti168     1.0  0.05000  0.85000  0.35000  1.0000
  Ti  Ti169     1.0  0.00000  0.80000  0.40000  1.0000
  Ti  Ti170     1.0  0.05000  0.85000  0.45000  1.0000
  Ti  Ti171     1.0  0.00000  0.80000  0.50000  1.0000
  Ti  Ti172     1.0  0.05000  0.85000  0.55000  1.0000
  Ti  Ti173     1.0  0.00000  0.80000  0.60000  1.0000
  Ti  Ti174     1.0  0.05000  0.85000  0.65000  1.0000
  Ti  Ti175     1.0  0.00000  0.80000  0.70000  1.0000
  Ti  Ti176     1.0  0.05000  0.85000  0.75000  1.0000
  Ti  Ti177     1.0  0.00000  0.80000  0.80000  1.0000
  Ti  Ti178     1.0  0.05000  0.85000  0.85000  1.0000
  Ti  Ti179     1.0  0.00000  0.80000  0.90000  1.0000
  Ti  Ti180     1.0  0.05000  0.85000  0.95000  1.0000
  Ti  Ti181     1.0  0.00000  0.90000  0.00000  1.0000
  Ti  Ti182     1.0  0.05000  0.95000  0.05000  1.0000
  Ti  Ti183     1.0  0.00000  0.90000  0.10000  1.0000
  Ti  Ti184     1.0  0.05000  0.95000  0.15000  1.0000
  Ti  Ti185     1.0  0.00000  0.90000  0.20000  1.0000
  Ti  Ti186     1.0  0.05000  0.95000  0.25000  1.0000
  Ti  Ti187     1.0  0.00000  0.90000  0.30000  1.0000
  Ti  Ti188     1.0  0.05000  0.95000  0.35000  1.0000
  Ti  Ti189     1.0  0.00000  0.90000  0.40000  1.0000
  Ti  Ti190     1.0  0.05000  0.95000  0.45000  1.0000
  Ti  Ti191     1.0  0.00000  0.90000  0.50000  1.0000
  Ti  Ti192     1.0  0.05000  0.95000  0.55000  1.0000
  Ti  Ti193     1.0  0.00000  0.90000  0.60000  1.0000
  Ti  Ti194     1.0  0.05000  0.95000  0.65000  1.0000
  Ti  Ti195     1.0  0.00000  0.90000  0.70000  1.0000
  Ti  Ti196     1.0  0.05000  0.95000  0.75000  1.0000
  Ti  Ti197     1.0  0.00000  0.90000  0.80000  1.0000
  Ti  Ti198     1.0  0.05000  0.95000  0.85000  1.0000
  Ti  Ti199     1.0  0.00000  0.90000  0.90000  1.0000
  Ti  Ti200     1.0  0.05000  0.95000  0.95000  1.0000
  Ti  Ti201     1.0  0.10000  0.00000  0.00000  1.0000
  Ti  Ti202     1.0  0.15000  0.05000  0.05000  1.0000
  Ti  Ti203     1.0  0.10000  0.00000  0.10000  1.0000
  Ti  Ti204     1.0  0.15000  0.05000  0.15000  1.0000
  Ti  Ti205     1.0  0.10000  0.00000  0.20000  1.0000
  Ti  Ti206     1.0  0.15000  0.05000  0.25000  1.0000
  Ti  Ti207     1.0  0.10000  0.00000  0.30000  1.0000
  Ti  Ti208     1.0  0.15000  0.05000  0.35000  1.0000
  Ti  Ti209     1.0  0.10000  0.00000  0.40000  1.0000
  Ti  Ti210     1.0  0.15000  0.05000  0.45000  1.0000
  Ti  Ti211     1.0  0.10000  0.00000  0.50000  1.0000
  Ti  Ti212     1.0  0.15000  0.05000  0.55000  1.0000
  Ti  Ti213     1.0  0.10000  0.00000  0.60000  1.0000
  Ti  Ti214     1.0  0.15000  0.05000  0.65000  1.0000
  Ti  Ti215     1.0  0.10000  0.00000  0.70000  1.0000
  Ti  Ti216     1.0  0.15000  0.05000  0.75000  1.0000
  Ti  Ti217     1.0  0.10000  0.00000  0.80000  1.0000
  Ti  Ti218     1.0  0.15000  0.05000  0.85000  1.0000
  Ti  Ti219     1.0  0.10000  0.00000  0.90000  1.0000
  Ti  Ti220     1.0  0.15000  0.05000  0.95000  1.0000
  Ti  Ti221     1.0  0.10000  0.10000  0.00000  1.0000
  Ti  Ti222     1.0  0.15000  0.15000  0.05000  1.0000
  Ti  Ti223     1.0  0.10000  0.10000  0.10000  1.0000
  Ti  Ti224     1.0  0.15000  0.15000  0.15000  1.0000
  Ti  Ti225     1.0  0.10000  0.10000  0.20000  1.0000
  Ti  Ti226     1.0  0.15000  0.15000  0.25000  1.0000
  Ti  Ti227     1.0  0.10000  0.10000  0.30000  1.0000
  Ti  Ti228     1.0  0.15000  0.15000  0.35000  1.0000
  Ti  Ti229     1.0  0.10000  0.10000  0.40000  1.0000
  Ti  Ti230     1.0  0.15000  0.15000  0.45000  1.0000
  Ti  Ti231     1.0  0.10000  0.10000  0.50000  1.0000
  Ti  Ti232     1.0  0.15000  0.15000  0.55000  1.0000
  Ti  Ti233     1.0  0.10000  0.10000  0.60000  1.0000
  Ti  Ti234     1.0  0.15000  0.15000  0.65000  1.0000
  Ti  Ti235     1.0  0.10000  0.10000  0.70000  1.0000
  Ti  Ti236     1.0  0.15000  0.15000  0.75000  1.0000
  Ti  Ti237     1.0  0.10000  0.10000  0.80000  1.0000
  Ti  Ti238     1.0  0.15000  0.15000  0.85000  1.0000
  Ti  Ti239     1.0  0.10000  0.10000  0.90000  1.0000
  Ti  Ti240     1.0  0.15000  0.15000  0.95000  1.0000
  Ti  Ti241     1.0  0.10000  0.20000  0.00000  1.0000
  Ti  Ti242     1.0  0.15000  0.25000  0.05000  1.0000
  Ti  Ti243     1.0  0.10000  0.20000  0.10000  1.0000
  Ti  Ti244     1.0  0.15000  0.25000  0.15000  1.0000
  Ti  Ti245     1.0  0.10000  0.20000  0.20000  1.0000
  Ti  Ti246     1.0  0.15000  0.25000  0.25000  1.0000
  Ti  Ti247     1.0  0.10000  0.20000  0.30000  1.0000
  Ti  Ti248     1.0  0.15000  0.25000  0.35000  1.0000
  Ti  Ti249     1.0  0.10000  0.20000  0.40000  1.0000
  Ti  Ti250     1.0  0.15000  0.25000  0.45000  1.0000
  Ti  Ti251     1.0  0.10000  0.20000  0.50000  1.0000
  Ti  Ti252     1.0  0.15000  0.25000  0.55000  1.0000
  Ti  Ti253     1.0  0.10000  0.20000  0.60000  1.0000
  Ti  Ti254     1.0  0.15000  0.25000  0.65000  1.0000
  Ti  Ti255     1.0  0.10000  0.20000  0.70000  1.0000
  Ti  Ti256     1.0  0.15000  0.25000  0.75000  1.0000
  Ti  Ti257     1.0  0.10000  0.20000  0.80000  1.0000
  Ti  Ti258     1.0  0.15000  0.25000  0.85000  1.0000
  Ti  Ti259     1.0  0.10000  0.20000  0.90000  1.0000
  Ti  Ti260     1.0  0.15000  0.25000  0.95000  1.0000
  Ti  Ti261     1.0  0.10000  0.30000  0.00000  1.0000
  Ti  Ti262     1.0  0.15000  0.35000  0.05000  1.0000
  Ti  Ti263     1.0  0.10000  0.30000  0.10000  1.0000
  Ti  Ti264     1.0  0.15000  0.35000  0.15000  1.0000
  Ti  Ti265     1.0  0.10000  0.30000  0.20000  1.0000
  Ti  Ti266     1.0  0.15000  0.35000  0.25000  1.0000
  Ti  Ti267     1.0  0.10000  0.30000  0.30000  1.0000
  Ti  Ti268     1.0  0.15000  0.35000  0.35000  1.0000
  Ti  Ti269     1.0  0.10000  0.30000  0.40000  1.0000
  Ti  Ti270     1.0  0.15000  0.35000  0.45000  1.0000
  Ti  Ti271     1.0  0.10000  0.30000  0.50000  1.0000
  Ti  Ti272     1.0  0.15000  0.35000  0.55000  1.0000
  Ti  Ti273     1.0  0.10000  0.30000  0.60000  1.0000
  Ti  Ti274     1.0  0.15000  0.35000  0.65000  1.0000
  Ti  Ti275     1.0  0.10000  0.30000  0.70000  1.0000
  Ti  Ti276     1.0  0.15000  0.35000  0.75000  1.0000
  Ti  Ti277     1.0  0.10000  0.30000  0.80000  1.0000
  Ti  Ti278     1.0  0.15000  0.35000  0.85000  1.0000
  Ti  Ti279     1.0  0.10000  0.30000  0.90000  1.0000
  Ti  Ti280     1.0  0.15000  0.35000  0.95000  1.0000
  Ti  Ti281     1.0  0.10000  0.40000  0.00000  1.0000
  Ti  Ti282     1.0  0.15000  0.45000  0.05000  1.0000
  Ti  Ti283     1.0  0.10000  0.40000  0.10000  1.0000
  Ti  Ti284     1.0  0.15000  0.45000  0.15000  1.0000
  Ti  Ti285     1.0  0.10000  0.40000  0.20000  1.0000
  Ti  Ti286     1.0  0.15000  0.45000  0.25000  1.0000
  Ti  Ti287     1.0  0.10000  0.40000  0.30000  1.0000
  Ti  Ti288     1.0  0.15000  0.45000  0.35000  1.0000
  Ti  Ti289     1.0  0.10000  0.40000  0.40000  1.0000
  Ti  Ti290     1.0  0.15000  0.45000  0.45000  1.0000
  Ti  Ti291     1.0  0.10000  0.40000  0.50000  1.0000
  Ti  Ti292     1.0  0.15000  0.45000  0.55000  1.0000
  Ti  Ti293     1.0  0.10000  0.40000  0.60000  1.0000
  Ti  Ti294     1.0  0.15000  0.45000  0.65000  1.0000
  Ti  Ti295     1.0  0.10000  0.40000  0.70000  1.0000
  Ti  Ti296     1.0  0.15000  0.45000  0.75000  1.0000
  Ti  Ti297     1.0  0.10000  0.40000  0.80000  1.0000
  Ti  Ti298     1.0  0.15000  0.45000  0.85000  1.0000
  Ti  Ti299     1.0  0.10000  0.40000  0.90000  1.0000
  Ti  Ti300     1.0  0.15000  0.45000  0.95000  1.0000
  Ti  Ti301     1.0  0.10000  0.50000  0.00000  1.0000
  Ti  Ti302     1.0  0.15000  0.55000  0.05000  1.0000
  Ti  Ti303     1.0  0.10000  0.50000  0.10000  1.0000
  Ti  Ti304     1.0  0.15000  0.55000  0.15000  1.0000
  Ti  Ti305     1.0  0.10000  0.50000  0.20000  1.0000
  Ti  Ti306     1.0  0.15000  0.55000  0.25000  1.0000
  Ti  Ti307     1.0  0.10000  0.50000  0.30000  1.0000
  Ti  Ti308     1.0  0.15000  0.55000  0.35000  1.0000
  Ti  Ti309     1.0  0.10000  0.50000  0.40000  1.0000
  Ti  Ti310     1.0  0.15000  0.55000  0.45000  1.0000
  Ti  Ti311     1.0  0.10000  0.50000  0.50000  1.0000
  Ti  Ti312     1.0  0.15000  0.55000  0.55000  1.0000
  Ti  Ti313     1.0  0.10000  0.50000  0.60000  1.0000
  Ti  Ti314     1.0  0.15000  0.55000  0.65000  1.0000
  Ti  Ti315     1.0  0.10000  0.50000  0.70000  1.0000
  Ti  Ti316     1.0  0.15000  0.55000  0.75000  1.0000
  Ti  Ti317     1.0  0.10000  0.50000  0.80000  1.0000
  Ti  Ti318     1.0  0.15000  0.55000  0.85000  1.0000
  Ti  Ti319     1.0  0.10000  0.50000  0.90000  1.0000
  Ti  Ti320     1.0  0.15000  0.55000  0.95000  1.0000
  Ti  Ti321     1.0  0.10000  0.60000  0.00000  1.0000
  Ti  Ti322     1.0  0.15000  0.65000  0.05000  1.0000
  Ti  Ti323     1.0  0.10000  0.60000  0.10000  1.0000
  Ti  Ti324     1.0  0.15000  0.65000  0.15000  1.0000
  Ti  Ti325     1.0  0.10000  0.60000  0.20000  1.0000
  Ti  Ti326     1.0  0.15000  0.65000  0.25000  1.0000
  Ti  Ti327     1.0  0.10000  0.60000  0.30000  1.0000
  Ti  Ti328     1.0  0.15000  0.65000  0.35000  1.0000
  Ti  Ti329     1.0  0.10000  0.60000  0.40000  1.0000
  Ti  Ti330     1.0  0.15000  0.65000  0.45000  1.0000
  Ti  Ti331     1.0  0.10000  0.60000  0.50000  1.0000
  Ti  Ti332     1.0  0.15000  0.65000  0.55000  1.0000
  Ti  Ti333     1.0  0.10000  0.60000  0.60000  1.0000
  Ti  Ti334     1.0  0.15000  0.65000  0.65000  1.0000
  Ti  Ti335     1.0  0.10000  0.60000  0.70000  1.0000
  Ti  Ti336     1.0  0.15000  0.65000  0.75000  1.0000
  Ti  Ti337     1.0  0.10000  0.60000  0.80000  1.0000
  Ti  Ti338     1.0  0.15000  0.65000  0.85000  1.0000
  Ti  Ti339     1.0  0.10000  0.60000  0.90000  1.0000
  Ti  Ti340     1.0  0.15000  0.65000  0.95000  1.0000
  Ti  Ti341     1.0  0.10000  0.70000  0.00000  1.0000
  Ti  Ti342     1.0  0.15000  0.75000  0.05000  1.0000
  Ti  Ti343     1.0  0.10000  0.70000  0.10000  1.0000
  Ti  Ti344     1.0  0.15000  0.75000  0.15000  1.0000
  Ti  Ti345     1.0  0.10000  0.70000  0.20000  1.0000
  Ti  Ti346     1.0  0.15000  0.75000  0.25000  1.0000
  Ti  Ti347     1.0  0.10000  0.70000  0.30000  1.0000
  Ti  Ti348     1.0  0.15000  0.75000  0.35000  1.0000
  Ti  Ti349     1.0  0.10000  0.70000  0.40000  1.0000
  Ti  Ti350     1.0  0.15000  0.75000  0.45000  1.0000
  Ti  Ti351     1.0  0.10000  0.70000  0.50000  1.0000
  Ti  Ti352     1.0  0.15000  0.75000  0.55000  1.0000
  Ti  Ti353     1.0  0.10000  0.70000  0.60000  1.0000
  Ti  Ti354     1.0  0.15000  0.75000  0.65000  1.0000
  Ti  Ti355     1.0  0.10000  0.70000  0.70000  1.0000
  Ti  Ti356     1.0  0.15000  0.75000  0.75000  1.0000
  Ti  Ti357     1.0  0.10000  0.70000  0.80000  1.0000
  Ti  Ti358     1.0  0.15000  0.75000  0.85000  1.0000
  Ti  Ti359     1.0  0.10000  0.70000  0.90000  1.0000
  Ti  Ti360     1.0  0.15000  0.75000  0.95000  1.0000
  Ti  Ti361     1.0  0.10000  0.80000  0.00000  1.0000
  Ti  Ti362     1.0  0.15000  0.85000  0.05000  1.0000
  Ti  Ti363     1.0  0.10000  0.80000  0.10000  1.0000
  Ti  Ti364     1.0  0.15000  0.85000  0.15000  1.0000
  Ti  Ti365     1.0  0.10000  0.80000  0.20000  1.0000
  Ti  Ti366     1.0  0.15000  0.85000  0.25000  1.0000
  Ti  Ti367     1.0  0.10000  0.80000  0.30000  1.0000
  Ti  Ti368     1.0  0.15000  0.85000  0.35000  1.0000
  Ti  Ti369     1.0  0.10000  0.80000  0.40000  1.0000
  Ti  Ti370     1.0  0.15000  0.85000  0.45000  1.0000
  Ti  Ti371     1.0  0.10000  0.80000  0.50000  1.0000
  Ti  Ti372     1.0  0.15000  0.85000  0.55000  1.0000
  Ti  Ti373     1.0  0.10000  0.80000  0.60000  1.0000
  Ti  Ti374     1.0  0.15000  0.85000  0.65000  1.0000
  Ti  Ti375     1.0  0.10000  0.80000  0.70000  1.0000
  Ti  Ti376     1.0  0.15000  0.85000  0.75000  1.0000
  Ti  Ti377     1.0  0.10000  0.80000  0.80000  1.0000
  Ti  Ti378     1.0  0.15000  0.85000  0.85000  1.0000
  Ti  Ti379     1.0  0.10000  0.80000  0.90000  1.0000
  Ti  Ti380     1.0  0.15000  0.85000  0.95000  1.0000
  Ti  Ti381     1.0  0.10000  0.90000  0.00000  1.0000
  Ti  Ti382     1.0  0.15000  0.95000  0.05000  1.0000
  Ti  Ti383     1.0  0.10000  0.90000  0.10000  1.0000
  Ti  Ti384     1.0  0.15000  0.95000  0.15000  1.0000
  Ti  Ti385     1.0  0.10000  0.90000  0.20000  1.0000
  Ti  Ti386     1.0  0.15000  0.95000  0.25000  1.0000
  Ti  Ti387     1.0  0.10000  0.90000  0.30000  1.0000
  Ti  Ti388     1.0  0.15000  0.95000  0.35000  1.0000
  Ti  Ti389     1.0  0.10000  0.90000  0.40000  1.0000
  Ti  Ti390     1.0  0.15000  0.95000  0.45000  1.0000
  Ti  Ti391     1.0  0.10000  0.90000  0.50000  1.0000
  Ti  Ti392     1.0  0.15000  0.95000  0.55000  1.0000
  Ti  Ti393     1.0  0.10000  0.90000  0.60000  1.0000
  Ti  Ti394     1.0  0.15000  0.95000  0.65000  1.0000
  Ti  Ti395     1.0  0.10000  0.90000  0.70000  1.0000
  Ti  Ti396     1.0  0.15000  0.95000  0.75000  1.0000
  Ti  Ti397     1.0  0.10000  0.90000  0.80000  1.0000
  Ti  Ti398     1.0  0.15000  0.95000  0.85000  1.0000
  Ti  Ti399     1.0  0.10000  0.90000  0.90000  1.0000
  Ti  Ti400     1.0  0.15000  0.95000  0.95000  1.0000
  Ti  Ti401     1.0  0.20000  0.00000  0.00000  1.0000
  Ti  Ti402     1.0  0.25000  0.05000  0.05000  1.0000
  Ti  Ti403     1.0  0.20000  0.00000  0.10000  1.0000
  Ti  Ti404     1.0  0.25000  0.05000  0.15000  1.0000
  Ti  Ti405     1.0  0.20000  0.00000  0.20000  1.0000
  Ti  Ti406     1.0  0.25000  0.05000  0.25000  1.0000
  Ti  Ti407     1.0  0.20000  0.00000  0.30000  1.0000
  Ti  Ti408     1.0  0.25000  0.05000  0.35000  1.0000
  Ti  Ti409     1.0  0.20000  0.00000  0.40000  1.0000
  Ti  Ti410     1.0  0.25000  0.05000  0.45000  1.0000
  Ti  Ti411     1.0  0.20000  0.00000  0.50000  1.0000
  Ti  Ti412     1.0  0.25000  0.05000  0.55000  1.0000
  Ti  Ti413     1.0  0.20000  0.00000  0.60000  1.0000
  Ti  Ti414     1.0  0.25000  0.05000  0.65000  1.0000
  Ti  Ti415     1.0  0.20000  0.00000  0.70000  1.0000
  Ti  Ti416     1.0  0.25000  0.05000  0.75000  1.0000
  Ti  Ti417     1.0  0.20000  0.00000  0.80000  1.0000
  Ti  Ti418     1.0  0.25000  0.05000  0.85000  1.0000
  Ti  Ti419     1.0  0.20000  0.00000  0.90000  1.0000
  Ti  Ti420     1.0  0.25000  0.05000  0.95000  1.0000
  Ti  Ti421     1.0  0.20000  0.10000  0.00000  1.0000
  Ti  Ti422     1.0  0.25000  0.15000  0.05000  1.0000
  Ti  Ti423     1.0  0.20000  0.10000  0.10000  1.0000
  Ti  Ti424     1.0  0.25000  0.15000  0.15000  1.0000
  Ti  Ti425     1.0  0.20000  0.10000  0.20000  1.0000
  Ti  Ti426     1.0  0.25000  0.15000  0.25000  1.0000
  Ti  Ti427     1.0  0.20000  0.10000  0.30000  1.0000
  Ti  Ti428     1.0  0.25000  0.15000  0.35000  1.0000
  Ti  Ti429     1.0  0.20000  0.10000  0.40000  1.0000
  Ti  Ti430     1.0  0.25000  0.15000  0.45000  1.0000
  Ti  Ti431     1.0  0.20000  0.10000  0.50000  1.0000
  Ti  Ti432     1.0  0.25000  0.15000  0.55000  1.0000
  Ti  Ti433     1.0  0.20000  0.10000  0.60000  1.0000
  Ti  Ti434     1.0  0.25000  0.15000  0.65000  1.0000
  Ti  Ti435     1.0  0.20000  0.10000  0.70000  1.0000
  Ti  Ti436     1.0  0.25000  0.15000  0.75000  1.0000
  Ti  Ti437     1.0  0.20000  0.10000  0.80000  1.0000
  Ti  Ti438     1.0  0.25000  0.15000  0.85000  1.0000
  Ti  Ti439     1.0  0.20000  0.10000  0.90000  1.0000
  Ti  Ti440     1.0  0.25000  0.15000  0.95000  1.0000
  Ti  Ti441     1.0  0.20000  0.20000  0.00000  1.0000
  Ti  Ti442     1.0  0.25000  0.25000  0.05000  1.0000
  Ti  Ti443     1.0  0.20000  0.20000  0.10000  1.0000
  Ti  Ti444     1.0  0.25000  0.25000  0.15000  1.0000
  Ti  Ti445     1.0  0.20000  0.20000  0.20000  1.0000
  Ti  Ti446     1.0  0.25000  0.25000  0.25000  1.0000
  Ti  Ti447     1.0  0.20000  0.20000  0.30000  1.0000
  Ti  Ti448     1.0  0.25000  0.25000  0.35000  1.0000
  Ti  Ti449     1.0  0.20000  0.20000  0.40000  1.0000
  Ti  Ti450     1.0  0.25000  0.25000  0.45000  1.0000
  Ti  Ti451     1.0  0.20000  0.20000  0.50000  1.0000
  Ti  Ti452     1.0  0.25000  0.25000  0.55000  1.0000
  Ti  Ti453     1.0  0.20000  0.20000  0.60000  1.0000
  Ti  Ti454     1.0  0.25000  0.25000  0.65000  1.0000
  Ti  Ti455     1.0  0.20000  0.20000  0.70000  1.0000
  Ti  Ti456     1.0  0.25000  0.25000  0.75000  1.0000
  Ti  Ti457     1.0  0.20000  0.20000  0.80000  1.0000
  Ti  Ti458     1.0  0.25000  0.25000  0.85000  1.0000
  Ti  Ti459     1.0  0.20000  0.20000  0.90000  1.0000
  Ti  Ti460     1.0  0.25000  0.25000  0.95000  1.0000
  Ti  Ti461     1.0  0.20000  0.30000  0.00000  1.0000
  Ti  Ti462     1.0  0.25000  0.35000  0.05000  1.0000
  Ti  Ti463     1.0  0.20000  0.30000  0.10000  1.0000
  Ti  Ti464     1.0  0.25000  0.35000  0.15000  1.0000
  Ti  Ti465     1.0  0.20000  0.30000  0.20000  1.0000
  Ti  Ti466     1.0  0.25000  0.35000  0.25000  1.0000
  Ti  Ti467     1.0  0.20000  0.30000  0.30000  1.0000
  Ti  Ti468     1.0  0.25000  0.35000  0.35000  1.0000
  Ti  Ti469     1.0  0.20000  0.30000  0.40000  1.0000
  Ti  Ti470     1.0  0.25000  0.35000  0.45000  1.0000
  Ti  Ti471     1.0  0.20000  0.30000  0.50000  1.0000
  Ti  Ti472     1.0  0.25000  0.35000  0.55000  1.0000
  Ti  Ti473     1.0  0.20000  0.30000  0.60000  1.0000
  Ti  Ti474     1.0  0.25000  0.35000  0.65000  1.0000
  Ti  Ti475     1.0  0.20000  0.30000  0.70000  1.0000
  Ti  Ti476     1.0  0.25000  0.35000  0.75000  1.0000
  Ti  Ti477     1.0  0.20000  0.30000  0.80000  1.0000
  Ti  Ti478     1.0  0.25000  0.35000  0.85000  1.0000
  Ti  Ti479     1.0  0.20000  0.30000  0.90000  1.0000
  Ti  Ti480     1.0  0.25000  0.35000  0.95000  1.0000
  Ti  Ti481     1.0  0.20000  0.40000  0.00000  1.0000
  Ti  Ti482     1.0  0.25000  0.45000  0.05000  1.0000
  Ti  Ti483     1.0  0.20000  0.40000  0.10000  1.0000
  Ti  Ti484     1.0  0.25000  0.45000  0.15000  1.0000
  Ti  Ti485     1.0  0.20000  0.40000  0.20000  1.0000
  Ti  Ti486     1.0  0.25000  0.45000  0.25000  1.0000
  Ti  Ti487     1.0  0.20000  0.40000  0.30000  1.0000
  Ti  Ti488     1.0  0.25000  0.45000  0.35000  1.0000
  Ti  Ti489     1.0  0.20000  0.40000  0.40000  1.0000
  Ti  Ti490     1.0  0.25000  0.45000  0.45000  1.0000
  Ti  Ti491     1.0  0.20000  0.40000  0.50000  1.0000
  Ti  Ti492     1.0  0.25000  0.45000  0.55000  1.0000
  Ti  Ti493     1.0  0.20000  0.40000  0.60000  1.0000
  Ti  Ti494     1.0  0.25000  0.45000  0.65000  1.0000
  Ti  Ti495     1.0  0.20000  0.40000  0.70000  1.0000
  Ti  Ti496     1.0  0.25000  0.45000  0.75000  1.0000
  Ti  Ti497     1.0  0.20000  0.40000  0.80000  1.0000
  Ti  Ti498     1.0  0.25000  0.45000  0.85000  1.0000
  Ti  Ti499     1.0  0.20000  0.40000  0.90000  1.0000
  Ti  Ti500     1.0  0.25000  0.45000  0.95000  1.0000
  Ti  Ti501     1.0  0.20000  0.50000  0.00000  1.0000
  Ti  Ti502     1.0  0.25000  0.55000  0.05000  1.0000
  Ti  Ti503     1.0  0.20000  0.50000  0.10000  1.0000
  Ti  Ti504     1.0  0.25000  0.55000  0.15000  1.0000
  Ti  Ti505     1.0  0.20000  0.50000  0.20000  1.0000
  Ti  Ti506     1.0  0.25000  0.55000  0.25000  1.0000
  Ti  Ti507     1.0  0.20000  0.50000  0.30000  1.0000
  Ti  Ti508     1.0  0.25000  0.55000  0.35000  1.0000
  Ti  Ti509     1.0  0.20000  0.50000  0.40000  1.0000
  Ti  Ti510     1.0  0.25000  0.55000  0.45000  1.0000
  Ti  Ti511     1.0  0.20000  0.50000  0.50000  1.0000
  Ti  Ti512     1.0  0.25000  0.55000  0.55000  1.0000
  Ti  Ti513     1.0  0.20000  0.50000  0.60000  1.0000
  Ti  Ti514     1.0  0.25000  0.55000  0.65000  1.0000
  Ti  Ti515     1.0  0.20000  0.50000  0.70000  1.0000
  Ti  Ti516     1.0  0.25000  0.55000  0.75000  1.0000
  Ti  Ti517     1.0  0.20000  0.50000  0.80000  1.0000
  Ti  Ti518     1.0  0.25000  0.55000  0.85000  1.0000
  Ti  Ti519     1.0  0.20000  0.50000  0.90000  1.0000
  Ti  Ti520     1.0  0.25000  0.55000  0.95000  1.0000
  Ti  Ti521     1.0  0.20000  0.60000  0.00000  1.0000
  Ti  Ti522     1.0  0.25000  0.65000  0.05000  1.0000
  Ti  Ti523     1.0  0.20000  0.60000  0.10000  1.0000
  Ti  Ti524     1.0  0.25000  0.65000  0.15000  1.0000
  Ti  Ti525     1.0  0.20000  0.60000  0.20000  1.0000
  Ti  Ti526     1.0  0.25000  0.65000  0.25000  1.0000
  Ti  Ti527     1.0  0.20000  0.60000  0.30000  1.0000
  Ti  Ti528     1.0  0.25000  0.65000  0.35000  1.0000
  Ti  Ti529     1.0  0.20000  0.60000  0.40000  1.0000
  Ti  Ti530     1.0  0.25000  0.65000  0.45000  1.0000
  Ti  Ti531     1.0  0.20000  0.60000  0.50000  1.0000
  Ti  Ti532     1.0  0.25000  0.65000  0.55000  1.0000
  Ti  Ti533     1.0  0.20000  0.60000  0.60000  1.0000
  Ti  Ti534     1.0  0.25000  0.65000  0.65000  1.0000
  Ti  Ti535     1.0  0.20000  0.60000  0.70000  1.0000
  Ti  Ti536     1.0  0.25000  0.65000  0.75000  1.0000
  Ti  Ti537     1.0  0.20000  0.60000  0.80000  1.0000
  Ti  Ti538     1.0  0.25000  0.65000  0.85000  1.0000
  Ti  Ti539     1.0  0.20000  0.60000  0.90000  1.0000
  Ti  Ti540     1.0  0.25000  0.65000  0.95000  1.0000
  Ti  Ti541     1.0  0.20000  0.70000  0.00000  1.0000
  Ti  Ti542     1.0  0.25000  0.75000  0.05000  1.0000
  Ti  Ti543     1.0  0.20000  0.70000  0.10000  1.0000
  Ti  Ti544     1.0  0.25000  0.75000  0.15000  1.0000
  Ti  Ti545     1.0  0.20000  0.70000  0.20000  1.0000
  Ti  Ti546     1.0  0.25000  0.75000  0.25000  1.0000
  Ti  Ti547     1.0  0.20000  0.70000  0.30000  1.0000
  Ti  Ti548     1.0  0.25000  0.75000  0.35000  1.0000
  Ti  Ti549     1.0  0.20000  0.70000  0.40000  1.0000
  Ti  Ti550     1.0  0.25000  0.75000  0.45000  1.0000
  Ti  Ti551     1.0  0.20000  0.70000  0.50000  1.0000
  Ti  Ti552     1.0  0.25000  0.75000  0.55000  1.0000
  Ti  Ti553     1.0  0.20000  0.70000  0.60000  1.0000
  Ti  Ti554     1.0  0.25000  0.75000  0.65000  1.0000
  Ti  Ti555     1.0  0.20000  0.70000  0.70000  1.0000
  Ti  Ti556     1.0  0.25000  0.75000  0.75000  1.0000
  Ti  Ti557     1.0  0.20000  0.70000  0.80000  1.0000
  Ti  Ti558     1.0  0.25000  0.75000  0.85000  1.0000
  Ti  Ti559     1.0  0.20000  0.70000  0.90000  1.0000
  Ti  Ti560     1.0  0.25000  0.75000  0.95000  1.0000
  Ti  Ti561     1.0  0.20000  0.80000  0.00000  1.0000
  Ti  Ti562     1.0  0.25000  0.85000  0.05000  1.0000
  Ti  Ti563     1.0  0.20000  0.80000  0.10000  1.0000
  Ti  Ti564     1.0  0.25000  0.85000  0.15000  1.0000
  Ti  Ti565     1.0  0.20000  0.80000  0.20000  1.0000
  Ti  Ti566     1.0  0.25000  0.85000  0.25000  1.0000
  Ti  Ti567     1.0  0.20000  0.80000  0.30000  1.0000
  Ti  Ti568     1.0  0.25000  0.85000  0.35000  1.0000
  Ti  Ti569     1.0  0.20000  0.80000  0.40000  1.0000
  Ti  Ti570     1.0  0.25000  0.85000  0.45000  1.0000
  Ti  Ti571     1.0  0.20000  0.80000  0.50000  1.0000
  Ti  Ti572     1.0  0.25000  0.85000  0.55000  1.0000
  Ti  Ti573     1.0  0.20000  0.80000  0.60000  1.0000
  Ti  Ti574     1.0  0.25000  0.85000  0.65000  1.0000
  Ti  Ti575     1.0  0.20000  0.80000  0.70000  1.0000
  Ti  Ti576     1.0  0.25000  0.85000  0.75000  1.0000
  Ti  Ti577     1.0  0.20000  0.80000  0.80000  1.0000
  Ti  Ti578     1.0  0.25000  0.85000  0.85000  1.0000
  Ti  Ti579     1.0  0.20000  0.80000  0.90000  1.0000
  Ti  Ti580     1.0  0.25000  0.85000  0.95000  1.0000
  Ti  Ti581     1.0  0.20000  0.90000  0.00000  1.0000
  Ti  Ti582     1.0  0.25000  0.95000  0.05000  1.0000
  Ti  Ti583     1.0  0.20000  0.90000  0.10000  1.0000
  Ti  Ti584     1.0  0.25000  0.95000  0.15000  1.0000
  Ti  Ti585     1.0  0.20000  0.90000  0.20000  1.0000
  Ti  Ti586     1.0  0.25000  0.95000  0.25000  1.0000
  Ti  Ti587     1.0  0.20000  0.90000  0.30000  1.0000
  Ti  Ti588     1.0  0.25000  0.95000  0.35000  1.0000
  Ti  Ti589     1.0  0.20000  0.90000  0.40000  1.0000
  Ti  Ti590     1.0  0.25000  0.95000  0.45000  1.0000
  Ti  Ti591     1.0  0.20000  0.90000  0.50000  1.0000
  Ti  Ti592     1.0  0.25000  0.95000  0.55000  1.0000
  Ti  Ti593     1.0  0.20000  0.90000  0.60000  1.0000
  Ti  Ti594     1.0  0.25000  0.95000  0.65000  1.0000
  Ti  Ti595     1.0  0.20000  0.90000  0.70000  1.0000
  Ti  Ti596     1.0  0.25000  0.95000  0.75000  1.0000
  Ti  Ti597     1.0  0.20000  0.90000  0.80000  1.0000
  Ti  Ti598     1.0  0.25000  0.95000  0.85000  1.0000
  Ti  Ti599     1.0  0.20000  0.90000  0.90000  1.0000
  Ti  Ti600     1.0  0.25000  0.95000  0.95000  1.0000
  Ti  Ti601     1.0  0.30000  0.00000  0.00000  1.0000
  Ti  Ti602     1.0  0.35000  0.05000  0.05000  1.0000
  Ti  Ti603     1.0  0.30000  0.00000  0.10000  1.0000
  Ti  Ti604     1.0  0.35000  0.05000  0.15000  1.0000
  Ti  Ti605     1.0  0.30000  0.00000  0.20000  1.0000
  Ti  Ti606     1.0  0.35000  0.05000  0.25000  1.0000
  Ti  Ti607     1.0  0.30000  0.00000  0.30000  1.0000
  Ti  Ti608     1.0  0.35000  0.05000  0.35000  1.0000
  Ti  Ti609     1.0  0.30000  0.00000  0.40000  1.0000
  Ti  Ti610     1.0  0.35000  0.05000  0.45000  1.0000
  Ti  Ti611     1.0  0.30000  0.00000  0.50000  1.0000
  Ti  Ti612     1.0  0.35000  0.05000  0.55000  1.0000
  Ti  Ti613     1.0  0.30000  0.00000  0.60000  1.0000
  Ti  Ti614     1.0  0.35000  0.05000  0.65000  1.0000
  Ti  Ti615     1.0  0.30000  0.00000  0.70000  1.0000
  Ti  Ti616     1.0  0.35000  0.05000  0.75000  1.0000
  Ti  Ti617     1.0  0.30000  0.00000  0.80000  1.0000
  Ti  Ti618     1.0  0.35000  0.05000  0.85000  1.0000
  Ti  Ti619     1.0  0.30000  0.00000  0.90000  1.0000
  Ti  Ti620     1.0  0.35000  0.05000  0.95000  1.0000
  Ti  Ti621     1.0  0.30000  0.10000  0.00000  1.0000
  Ti  Ti622     1.0  0.35000  0.15000  0.05000  1.0000
  Ti  Ti623     1.0  0.30000  0.10000  0.10000  1.0000
  Ti  Ti624     1.0  0.35000  0.15000  0.15000  1.0000
  Ti  Ti625     1.0  0.30000  0.10000  0.20000  1.0000
  Ti  Ti626     1.0  0.35000  0.15000  0.25000  1.0000
  Ti  Ti627     1.0  0.30000  0.10000  0.30000  1.0000
  Ti  Ti628     1.0  0.35000  0.15000  0.35000  1.0000
  Ti  Ti629     1.0  0.30000  0.10000  0.40000  1.0000
  Ti  Ti630     1.0  0.35000  0.15000  0.45000  1.0000
  Ti  Ti631     1.0  0.30000  0.10000  0.50000  1.0000
  Ti  Ti632     1.0  0.35000  0.15000  0.55000  1.0000
  Ti  Ti633     1.0  0.30000  0.10000  0.60000  1.0000
  Ti  Ti634     1.0  0.35000  0.15000  0.65000  1.0000
  Ti  Ti635     1.0  0.30000  0.10000  0.70000  1.0000
  Ti  Ti636     1.0  0.35000  0.15000  0.75000  1.0000
  Ti  Ti637     1.0  0.30000  0.10000  0.80000  1.0000
  Ti  Ti638     1.0  0.35000  0.15000  0.85000  1.0000
  Ti  Ti639     1.0  0.30000  0.10000  0.90000  1.0000
  Ti  Ti640     1.0  0.35000  0.15000  0.95000  1.0000
  Ti  Ti641     1.0  0.30000  0.20000  0.00000  1.0000
  Ti  Ti642     1.0  0.35000  0.25000  0.05000  1.0000
  Ti  Ti643     1.0  0.30000  0.20000  0.10000  1.0000
  Ti  Ti644     1.0  0.35000  0.25000  0.15000  1.0000
  Ti  Ti645     1.0  0.30000  0.20000  0.20000  1.0000
  Ti  Ti646     1.0  0.35000  0.25000  0.25000  1.0000
  Ti  Ti647     1.0  0.30000  0.20000  0.30000  1.0000
  Ti  Ti648     1.0  0.35000  0.25000  0.35000  1.0000
  Ti  Ti649     1.0  0.30000  0.20000  0.40000  1.0000
  Ti  Ti650     1.0  0.35000  0.25000  0.45000  1.0000
  Ti  Ti651     1.0  0.30000  0.20000  0.50000  1.0000
  Ti  Ti652     1.0  0.35000  0.25000  0.55000  1.0000
  Ti  Ti653     1.0  0.30000  0.20000  0.60000  1.0000
  Ti  Ti654     1.0  0.35000  0.25000  0.65000  1.0000
  Ti  Ti655     1.0  0.30000  0.20000  0.70000  1.0000
  Ti  Ti656     1.0  0.35000  0.25000  0.75000  1.0000
  Ti  Ti657     1.0  0.30000  0.20000  0.80000  1.0000
  Ti  Ti658     1.0  0.35000  0.25000  0.85000  1.0000
  Ti  Ti659     1.0  0.30000  0.20000  0.90000  1.0000
  Ti  Ti660     1.0  0.35000  0.25000  0.95000  1.0000
  Ti  Ti661     1.0  0.30000  0.30000  0.00000  1.0000
  Ti  Ti662     1.0  0.35000  0.35000  0.05000  1.0000
  Ti  Ti663     1.0  0.30000  0.30000  0.10000  1.0000
  Ti  Ti664     1.0  0.35000  0.35000  0.15000  1.0000
  Ti  Ti665     1.0  0.30000  0.30000  0.20000  1.0000
  Ti  Ti666     1.0  0.35000  0.35000  0.25000  1.0000
  Ti  Ti667     1.0  0.30000  0.30000  0.30000  1.0000
  Ti  Ti668     1.0  0.35000  0.35000  0.35000  1.0000
  Ti  Ti669     1.0  0.30000  0.30000  0.40000  1.0000
  Ti  Ti670     1.0  0.35000  0.35000  0.45000  1.0000
  Ti  Ti671     1.0  0.30000  0.30000  0.50000  1.0000
  Ti  Ti672     1.0  0.35000  0.35000  0.55000  1.0000
  Ti  Ti673     1.0  0.30000  0.30000  0.60000  1.0000
  Ti  Ti674     1.0  0.35000  0.35000  0.65000  1.0000
  Ti  Ti675     1.0  0.30000  0.30000  0.70000  1.0000
  Ti  Ti676     1.0  0.35000  0.35000  0.75000  1.0000
  Ti  Ti677     1.0  0.30000  0.30000  0.80000  1.0000
  Ti  Ti678     1.0  0.35000  0.35000  0.85000  1.0000
  Ti  Ti679     1.0  0.30000  0.30000  0.90000  1.0000
  Ti  Ti680     1.0  0.35000  0.35000  0.95000  1.0000
  Ti  Ti681     1.0  0.30000  0.40000  0.00000  1.0000
  Ti  Ti682     1.0  0.35000  0.45000  0.05000  1.0000
  Ti  Ti683     1.0  0.30000  0.40000  0.10000  1.0000
  Ti  Ti684     1.0  0.35000  0.45000  0.15000  1.0000
  Ti  Ti685     1.0  0.30000  0.40000  0.20000  1.0000
  Ti  Ti686     1.0  0.35000  0.45000  0.25000  1.0000
  Ti  Ti687     1.0  0.30000  0.40000  0.30000  1.0000
  Ti  Ti688     1.0  0.35000  0.45000  0.35000  1.0000
  Ti  Ti689     1.0  0.30000  0.40000  0.40000  1.0000
  Ti  Ti690     1.0  0.35000  0.45000  0.45000  1.0000
  Ti  Ti691     1.0  0.30000  0.40000  0.50000  1.0000
  Ti  Ti692     1.0  0.35000  0.45000  0.55000  1.0000
  Ti  Ti693     1.0  0.30000  0.40000  0.60000  1.0000
  Ti  Ti694     1.0  0.35000  0.45000  0.65000  1.0000
  Ti  Ti695     1.0  0.30000  0.40000  0.70000  1.0000
  Ti  Ti696     1.0  0.35000  0.45000  0.75000  1.0000
  Ti  Ti697     1.0  0.30000  0.40000  0.80000  1.0000
  Ti  Ti698     1.0  0.35000  0.45000  0.85000  1.0000
  Ti  Ti699     1.0  0.30000  0.40000  0.90000  1.0000
  Ti  Ti700     1.0  0.35000  0.45000  0.95000  1.0000
  Ti  Ti701     1.0  0.30000  0.50000  0.00000  1.0000
  Ti  Ti702     1.0  0.35000  0.55000  0.05000  1.0000
  Ti  Ti703     1.0  0.30000  0.50000  0.10000  1.0000
  Ti  Ti704     1.0  0.35000  0.55000  0.15000  1.0000
  Ti  Ti705     1.0  0.30000  0.50000  0.20000  1.0000
  Ti  Ti706     1.0  0.35000  0.55000  0.25000  1.0000
  Ti  Ti707     1.0  0.30000  0.50000  0.30000  1.0000
  Ti  Ti708     1.0  0.35000  0.55000  0.35000  1.0000
  Ti  Ti709     1.0  0.30000  0.50000  0.40000  1.0000
  Ti  Ti710     1.0  0.35000  0.55000  0.45000  1.0000
  Ti  Ti711     1.0  0.30000  0.50000  0.50000  1.0000
  Ti  Ti712     1.0  0.35000  0.55000  0.55000  1.0000
  Ti  Ti713     1.0  0.30000  0.50000  0.60000  1.0000
  Ti  Ti714     1.0  0.35000  0.55000  0.65000  1.0000
  Ti  Ti715     1.0  0.30000  0.50000  0.70000  1.0000
  Ti  Ti716     1.0  0.35000  0.55000  0.75000  1.0000
  Ti  Ti717     1.0  0.30000  0.50000  0.80000  1.0000
  Ti  Ti718     1.0  0.35000  0.55000  0.85000  1.0000
  Ti  Ti719     1.0  0.30000  0.50000  0.90000  1.0000
  Ti  Ti720     1.0  0.35000  0.55000  0.95000  1.0000
  Ti  Ti721     1.0  0.30000  0.60000  0.00000  1.0000
  Ti  Ti722     1.0  0.35000  0.65000  0.05000  1.0000
  Ti  Ti723     1.0  0.30000  0.60000  0.10000  1.0000
  Ti  Ti724     1.0  0.35000  0.65000  0.15000  1.0000
  Ti  Ti725     1.0  0.30000  0.60000  0.20000  1.0000
  Ti  Ti726     1.0  0.35000  0.65000  0.25000  1.0000
  Ti  Ti727     1.0  0.30000  0.60000  0.30000  1.0000
  Ti  Ti728     1.0  0.35000  0.65000  0.35000  1.0000
  Ti  Ti729     1.0  0.30000  0.60000  0.40000  1.0000
  Ti  Ti730     1.0  0.35000  0.65000  0.45000  1.0000
  Ti  Ti731     1.0  0.30000  0.60000  0.50000  1.0000
  Ti  Ti732     1.0  0.35000  0.65000  0.55000  1.0000
  Ti  Ti733     1.0  0.30000  0.60000  0.60000  1.0000
  Ti  Ti734     1.0  0.35000  0.65000  0.65000  1.0000
  Ti  Ti735     1.0  0.30000  0.60000  0.70000  1.0000
  Ti  Ti736     1.0  0.35000  0.65000  0.75000  1.0000
  Ti  Ti737     1.0  0.30000  0.60000  0.80000  1.0000
  Ti  Ti738     1.0  0.35000  0.65000  0.85000  1.0000
  Ti  Ti739     1.0  0.30000  0.60000  0.90000  1.0000
  Ti  Ti740     1.0  0.35000  0.65000  0.95000  1.0000
  Ti  Ti741     1.0  0.30000  0.70000  0.00000  1.0000
  Ti  Ti742     1.0  0.35000  0.75000  0.05000  1.0000
  Ti  Ti743     1.0  0.30000  0.70000  0.10000  1.0000
  Ti  Ti744     1.0  0.35000  0.75000  0.15000  1.0000
  Ti  Ti745     1.0  0.30000  0.70000  0.20000  1.0000
  Ti  Ti746     1.0  0.35000  0.75000  0.25000  1.0000
  Ti  Ti747     1.0  0.30000  0.70000  0.30000  1.0000
  Ti  Ti748     1.0  0.35000  0.75000  0.35000  1.0000
  Ti  Ti749     1.0  0.30000  0.70000  0.40000  1.0000
  Ti  Ti750     1.0  0.35000  0.75000  0.45000  1.0000
  Ti  Ti751     1.0  0.30000  0.70000  0.50000  1.0000
  Ti  Ti752     1.0  0.35000  0.75000  0.55000  1.0000
  Ti  Ti753     1.0  0.30000  0.70000  0.60000  1.0000
  Ti  Ti754     1.0  0.35000  0.75000  0.65000  1.0000
  Ti  Ti755     1.0  0.30000  0.70000  0.70000  1.0000
  Ti  Ti756     1.0  0.35000  0.75000  0.75000  1.0000
  Ti  Ti757     1.0  0.30000  0.70000  0.80000  1.0000
  Ti  Ti758     1.0  0.35000  0.75000  0.85000  1.0000
  Ti  Ti759     1.0  0.30000  0.70000  0.90000  1.0000
  Ti  Ti760     1.0  0.35000  0.75000  0.95000  1.0000
  Ti  Ti761     1.0  0.30000  0.80000  0.00000  1.0000
  Ti  Ti762     1.0  0.35000  0.85000  0.05000  1.0000
  Ti  Ti763     1.0  0.30000  0.80000  0.10000  1.0000
  Ti  Ti764     1.0  0.35000  0.85000  0.15000  1.0000
  Ti  Ti765     1.0  0.30000  0.80000  0.20000  1.0000
  Ti  Ti766     1.0  0.35000  0.85000  0.25000  1.0000
  Ti  Ti767     1.0  0.30000  0.80000  0.30000  1.0000
  Ti  Ti768     1.0  0.35000  0.85000  0.35000  1.0000
  Ti  Ti769     1.0  0.30000  0.80000  0.40000  1.0000
  Ti  Ti770     1.0  0.35000  0.85000  0.45000  1.0000
  Ti  Ti771     1.0  0.30000  0.80000  0.50000  1.0000
  Ti  Ti772     1.0  0.35000  0.85000  0.55000  1.0000
  Ti  Ti773     1.0  0.30000  0.80000  0.60000  1.0000
  Ti  Ti774     1.0  0.35000  0.85000  0.65000  1.0000
  Ti  Ti775     1.0  0.30000  0.80000  0.70000  1.0000
  Ti  Ti776     1.0  0.35000  0.85000  0.75000  1.0000
  Ti  Ti777     1.0  0.30000  0.80000  0.80000  1.0000
  Ti  Ti778     1.0  0.35000  0.85000  0.85000  1.0000
  Ti  Ti779     1.0  0.30000  0.80000  0.90000  1.0000
  Ti  Ti780     1.0  0.35000  0.85000  0.95000  1.0000
  Ti  Ti781     1.0  0.30000  0.90000  0.00000  1.0000
  Ti  Ti782     1.0  0.35000  0.95000  0.05000  1.0000
  Ti  Ti783     1.0  0.30000  0.90000  0.10000  1.0000
  Ti  Ti784     1.0  0.35000  0.95000  0.15000  1.0000
  Ti  Ti785     1.0  0.30000  0.90000  0.20000  1.0000
  Ti  Ti786     1.0  0.35000  0.95000  0.25000  1.0000
  Ti  Ti787     1.0  0.30000  0.90000  0.30000  1.0000
  Ti  Ti788     1.0  0.35000  0.95000  0.35000  1.0000
  Ti  Ti789     1.0  0.30000  0.90000  0.40000  1.0000
  Ti  Ti790     1.0  0.35000  0.95000  0.45000  1.0000
  Ti  Ti791     1.0  0.30000  0.90000  0.50000  1.0000
  Ti  Ti792     1.0  0.35000  0.95000  0.55000  1.0000
  Ti  Ti793     1.0  0.30000  0.90000  0.60000  1.0000
  Ti  Ti794     1.0  0.35000  0.95000  0.65000  1.0000
  Ti  Ti795     1.0  0.30000  0.90000  0.70000  1.0000
  Ti  Ti796     1.0  0.35000  0.95000  0.75000  1.0000
  Ti  Ti797     1.0  0.30000  0.90000  0.80000  1.0000
  Ti  Ti798     1.0  0.35000  0.95000  0.85000  1.0000
  Ti  Ti799     1.0  0.30000  0.90000  0.90000  1.0000
  Ti  Ti800     1.0  0.35000  0.95000  0.95000  1.0000
  Ti  Ti801     1.0  0.40000  0.00000  0.00000  1.0000
  Ti  Ti802     1.0  0.45000  0.05000  0.05000  1.0000
  Ti  Ti803     1.0  0.40000  0.00000  0.10000  1.0000
  Ti  Ti804     1.0  0.45000  0.05000  0.15000  1.0000
  Ti  Ti805     1.0  0.40000  0.00000  0.20000  1.0000
  Ti  Ti806     1.0  0.45000  0.05000  0.25000  1.0000
  Ti  Ti807     1.0  0.40000  0.00000  0.30000  1.0000
  Ti  Ti808     1.0  0.45000  0.05000  0.35000  1.0000
  Ti  Ti809     1.0  0.40000  0.00000  0.40000  1.0000
  Ti  Ti810     1.0  0.45000  0.05000  0.45000  1.0000
  Ti  Ti811     1.0  0.40000  0.00000  0.50000  1.0000
  Ti  Ti812     1.0  0.45000  0.05000  0.55000  1.0000
  Ti  Ti813     1.0  0.40000  0.00000  0.60000  1.0000
  Ti  Ti814     1.0  0.45000  0.05000  0.65000  1.0000
  Ti  Ti815     1.0  0.40000  0.00000  0.70000  1.0000
  Ti  Ti816     1.0  0.45000  0.05000  0.75000  1.0000
  Ti  Ti817     1.0  0.40000  0.00000  0.80000  1.0000
  Ti  Ti818     1.0  0.45000  0.05000  0.85000  1.0000
  Ti  Ti819     1.0  0.40000  0.00000  0.90000  1.0000
  Ti  Ti820     1.0  0.45000  0.05000  0.95000  1.0000
  Ti  Ti821     1.0  0.40000  0.10000  0.00000  1.0000
  Ti  Ti822     1.0  0.45000  0.15000  0.05000  1.0000
  Ti  Ti823     1.0  0.40000  0.10000  0.10000  1.0000
  Ti  Ti824     1.0  0.45000  0.15000  0.15000  1.0000
  Ti  Ti825     1.0  0.40000  0.10000  0.20000  1.0000
  Ti  Ti826     1.0  0.45000  0.15000  0.25000  1.0000
  Ti  Ti827     1.0  0.40000  0.10000  0.30000  1.0000
  Ti  Ti828     1.0  0.45000  0.15000  0.35000  1.0000
  Ti  Ti829     1.0  0.40000  0.10000  0.40000  1.0000
  Ti  Ti830     1.0  0.45000  0.15000  0.45000  1.0000
  Ti  Ti831     1.0  0.40000  0.10000  0.50000  1.0000
  Ti  Ti832     1.0  0.45000  0.15000  0.55000  1.0000
  Ti  Ti833     1.0  0.40000  0.10000  0.60000  1.0000
  Ti  Ti834     1.0  0.45000  0.15000  0.65000  1.0000
  Ti  Ti835     1.0  0.40000  0.10000  0.70000  1.0000
  Ti  Ti836     1.0  0.45000  0.15000  0.75000  1.0000
  Ti  Ti837     1.0  0.40000  0.10000  0.80000  1.0000
  Ti  Ti838     1.0  0.45000  0.15000  0.85000  1.0000
  Ti  Ti839     1.0  0.40000  0.10000  0.90000  1.0000
  Ti  Ti840     1.0  0.45000  0.15000  0.95000  1.0000
  Ti  Ti841     1.0  0.40000  0.20000  0.00000  1.0000
  Ti  Ti842     1.0  0.45000  0.25000  0.05000  1.0000
  Ti  Ti843     1.0  0.40000  0.20000  0.10000  1.0000
  Ti  Ti844     1.0  0.45000  0.25000  0.15000  1.0000
  Ti  Ti845     1.0  0.40000  0.20000  0.20000  1.0000
  Ti  Ti846     1.0  0.45000  0.25000  0.25000  1.0000
  Ti  Ti847     1.0  0.40000  0.20000  0.30000  1.0000
  Ti  Ti848     1.0  0.45000  0.25000  0.35000  1.0000
  Ti  Ti849     1.0  0.40000  0.20000  0.40000  1.0000
  Ti  Ti850     1.0  0.45000  0.25000  0.45000  1.0000
  Ti  Ti851     1.0  0.40000  0.20000  0.50000  1.0000
  Ti  Ti852     1.0  0.45000  0.25000  0.55000  1.0000
  Ti  Ti853     1.0  0.40000  0.20000  0.60000  1.0000
  Ti  Ti854     1.0  0.45000  0.25000  0.65000  1.0000
  Ti  Ti855     1.0  0.40000  0.20000  0.70000  1.0000
  Ti  Ti856     1.0  0.45000  0.25000  0.75000  1.0000
  Ti  Ti857     1.0  0.40000  0.20000  0.80000  1.0000
  Ti  Ti858     1.0  0.45000  0.25000  0.85000  1.0000
  Ti  Ti859     1.0  0.40000  0.20000  0.90000  1.0000
  Ti  Ti860     1.0  0.45000  0.25000  0.95000  1.0000
  Ti  Ti861     1.0  0.40000  0.30000  0.00000  1.0000
  Ti  Ti862     1.0  0.45000  0.35000  0.05000  1.0000
  Ti  Ti863     1.0  0.40000  0.30000  0.10000  1.0000
  Ti  Ti864     1.0  0.45000  0.35000  0.15000  1.0000
  Ti  Ti865     1.0  0.40000  0.30000  0.20000  1.0000
  Ti  Ti866     1.0  0.45000  0.35000  0.25000  1.0000
  Ti  Ti867     1.0  0.40000  0.30000  0.30000  1.0000
  Ti  Ti868     1.0  0.45000  0.35000  0.35000  1.0000
  Ti  Ti869     1.0  0.40000  0.30000  0.40000  1.0000
  Ti  Ti870     1.0  0.45000  0.35000  0.45000  1.0000
  Ti  Ti871     1.0  0.40000  0.30000  0.50000  1.0000
  Ti  Ti872     1.0  0.45000  0.35000  0.55000  1.0000
  Ti  Ti873     1.0  0.40000  0.30000  0.60000  1.0000
  Ti  Ti874     1.0  0.45000  0.35000  0.65000  1.0000
  Ti  Ti875     1.0  0.40000  0.30000  0.70000  1.0000
  Ti  Ti876     1.0  0.45000  0.35000  0.75000  1.0000
  Ti  Ti877     1.0  0.40000  0.30000  0.80000  1.0000
  Ti  Ti878     1.0  0.45000  0.35000  0.85000  1.0000
  Ti  Ti879     1.0  0.40000  0.30000  0.90000  1.0000
  Ti  Ti880     1.0  0.45000  0.35000  0.95000  1.0000
  Ti  Ti881     1.0  0.40000  0.40000  0.00000  1.0000
  Ti  Ti882     1.0  0.45000  0.45000  0.05000  1.0000
  Ti  Ti883     1.0  0.40000  0.40000  0.10000  1.0000
  Ti  Ti884     1.0  0.45000  0.45000  0.15000  1.0000
  Ti  Ti885     1.0  0.40000  0.40000  0.20000  1.0000
  Ti  Ti886     1.0  0.45000  0.45000  0.25000  1.0000
  Ti  Ti887     1.0  0.40000  0.40000  0.30000  1.0000
  Ti  Ti888     1.0  0.45000  0.45000  0.35000  1.0000
  Ti  Ti889     1.0  0.40000  0.40000  0.40000  1.0000
  Ti  Ti890     1.0  0.45000  0.45000  0.45000  1.0000
  Ti  Ti891     1.0  0.40000  0.40000  0.50000  1.0000
  Ti  Ti892     1.0  0.45000  0.45000  0.55000  1.0000
  Ti  Ti893     1.0  0.40000  0.40000  0.60000  1.0000
  Ti  Ti894     1.0  0.45000  0.45000  0.65000  1.0000
  Ti  Ti895     1.0  0.40000  0.40000  0.70000  1.0000
  Ti  Ti896     1.0  0.45000  0.45000  0.75000  1.0000
  Ti  Ti897     1.0  0.40000  0.40000  0.80000  1.0000
  Ti  Ti898     1.0  0.45000  0.45000  0.85000  1.0000
  Ti  Ti899     1.0  0.40000  0.40000  0.90000  1.0000
  Ti  Ti900     1.0  0.45000  0.45000  0.95000  1.0000
  Ti  Ti901     1.0  0.40000  0.50000  0.00000  1.0000
  Ti  Ti902     1.0  0.45000  0.55000  0.05000  1.0000
  Ti  Ti903     1.0  0.40000  0.50000  0.10000  1.0000
  Ti  Ti904     1.0  0.45000  0.55000  0.15000  1.0000
  Ti  Ti905     1.0  0.40000  0.50000  0.20000  1.0000
  Ti  Ti906     1.0  0.45000  0.55000  0.25000  1.0000
  Ti  Ti907     1.0  0.40000  0.50000  0.30000  1.0000
  Ti  Ti908     1.0  0.45000  0.55000  0.35000  1.0000
  Ti  Ti909     1.0  0.40000  0.50000  0.40000  1.0000
  Ti  Ti910     1.0  0.45000  0.55000  0.45000  1.0000
  Ti  Ti911     1.0  0.40000  0.50000  0.50000  1.0000
  Ti  Ti912     1.0  0.45000  0.55000  0.55000  1.0000
  Ti  Ti913     1.0  0.40000  0.50000  0.60000  1.0000
  Ti  Ti914     1.0  0.45000  0.55000  0.65000  1.0000
  Ti  Ti915     1.0  0.40000  0.50000  0.70000  1.0000
  Ti  Ti916     1.0  0.45000  0.55000  0.75000  1.0000
  Ti  Ti917     1.0  0.40000  0.50000  0.80000  1.0000
  Ti  Ti918     1.0  0.45000  0.55000  0.85000  1.0000
  Ti  Ti919     1.0  0.40000  0.50000  0.90000  1.0000
  Ti  Ti920     1.0  0.45000  0.55000  0.95000  1.0000
  Ti  Ti921     1.0  0.40000  0.60000  0.00000  1.0000
  Ti  Ti922     1.0  0.45000  0.65000  0.05000  1.0000
  Ti  Ti923     1.0  0.40000  0.60000  0.10000  1.0000
  Ti  Ti924     1.0  0.45000  0.65000  0.15000  1.0000
  Ti  Ti925     1.0  0.40000  0.60000  0.20000  1.0000
  Ti  Ti926     1.0  0.45000  0.65000  0.25000  1.0000
  Ti  Ti927     1.0  0.40000  0.60000  0.30000  1.0000
  Ti  Ti928     1.0  0.45000  0.65000  0.35000  1.0000
  Ti  Ti929     1.0  0.40000  0.60000  0.40000  1.0000
  Ti  Ti930     1.0  0.45000  0.65000  0.45000  1.0000
  Ti  Ti931     1.0  0.40000  0.60000  0.50000  1.0000
  Ti  Ti932     1.0  0.45000  0.65000  0.55000  1.0000
  Ti  Ti933     1.0  0.40000  0.60000  0.60000  1.0000
  Ti  Ti934     1.0  0.45000  0.65000  0.65000  1.0000
  Ti  Ti935     1.0  0.40000  0.60000  0.70000  1.0000
  Ti  Ti936     1.0  0.45000  0.65000  0.75000  1.0000
  Ti  Ti937     1.0  0.40000  0.60000  0.80000  1.0000
  Ti  Ti938     1.0  0.45000  0.65000  0.85000  1.0000
  Ti  Ti939     1.0  0.40000  0.60000  0.90000  1.0000
  Ti  Ti940     1.0  0.45000  0.65000  0.95000  1.0000
  Ti  Ti941     1.0  0.40000  0.70000  0.00000  1.0000
  Ti  Ti942     1.0  0.45000  0.75000  0.05000  1.0000
  Ti  Ti943     1.0  0.40000  0.70000  0.10000  1.0000
  Ti  Ti944     1.0  0.45000  0.75000  0.15000  1.0000
  Ti  Ti945     1.0  0.40000  0.70000  0.20000  1.0000
  Ti  Ti946     1.0  0.45000  0.75000  0.25000  1.0000
  Ti  Ti947     1.0  0.40000  0.70000  0.30000  1.0000
  Ti  Ti948     1.0  0.45000  0.75000  0.35000  1.0000
  Ti  Ti949     1.0  0.40000  0.70000  0.40000  1.0000
  Ti  Ti950     1.0  0.45000  0.75000  0.45000  1.0000
  Ti  Ti951     1.0  0.40000  0.70000  0.50000  1.0000
  Ti  Ti952     1.0  0.45000  0.75000  0.55000  1.0000
  Ti  Ti953     1.0  0.40000  0.70000  0.60000  1.0000
  Ti  Ti954     1.0  0.45000  0.75000  0.65000  1.0000
  Ti  Ti955     1.0  0.40000  0.70000  0.70000  1.0000
  Ti  Ti956     1.0  0.45000  0.75000  0.75000  1.0000
  Ti  Ti957     1.0  0.40000  0.70000  0.80000  1.0000
  Ti  Ti958     1.0  0.45000  0.75000  0.85000  1.0000
  Ti  Ti959     1.0  0.40000  0.70000  0.90000  1.0000
  Ti  Ti960     1.0  0.45000  0.75000  0.95000  1.0000
  Ti  Ti961     1.0  0.40000  0.80000  0.00000  1.0000
  Ti  Ti962     1.0  0.45000  0.85000  0.05000  1.0000
  Ti  Ti963     1.0  0.40000  0.80000  0.10000  1.0000
  Ti  Ti964     1.0  0.45000  0.85000  0.15000  1.0000
  Ti  Ti965     1.0  0.40000  0.80000  0.20000  1.0000
  Ti  Ti966     1.0  0.45000  0.85000  0.25000  1.0000
  Ti  Ti967     1.0  0.40000  0.80000  0.30000  1.0000
  Ti  Ti968     1.0  0.45000  0.85000  0.35000  1.0000
  Ti  Ti969     1.0  0.40000  0.80000  0.40000  1.0000
  Ti  Ti970     1.0  0.45000  0.85000  0.45000  1.0000
  Ti  Ti971     1.0  0.40000  0.80000  0.50000  1.0000
  Ti  Ti972     1.0  0.45000  0.85000  0.55000  1.0000
  Ti  Ti973     1.0  0.40000  0.80000  0.60000  1.0000
  Ti  Ti974     1.0  0.45000  0.85000  0.65000  1.0000
  Ti  Ti975     1.0  0.40000  0.80000  0.70000  1.0000
  Ti  Ti976     1.0  0.45000  0.85000  0.75000  1.0000
  Ti  Ti977     1.0  0.40000  0.80000  0.80000  1.0000
  Ti  Ti978     1.0  0.45000  0.85000  0.85000  1.0000
  Ti  Ti979     1.0  0.40000  0.80000  0.90000  1.0000
  Ti  Ti980     1.0  0.45000  0.85000  0.95000  1.0000
  Ti  Ti981     1.0  0.40000  0.90000  0.00000  1.0000
  Ti  Ti982     1.0  0.45000  0.95000  0.05000  1.0000
  Ti  Ti983     1.0  0.40000  0.90000  0.10000  1.0000
  Ti  Ti984     1.0  0.45000  0.95000  0.15000  1.0000
  Ti  Ti985     1.0  0.40000  0.90000  0.20000  1.0000
  Ti  Ti986     1.0  0.45000  0.95000  0.25000  1.0000
  Ti  Ti987     1.0  0.40000  0.90000  0.30000  1.0000
  Ti  Ti988     1.0  0.45000  0.95000  0.35000  1.0000
  Ti  Ti989     1.0  0.40000  0.90000  0.40000  1.0000
  Ti  Ti990     1.0  0.45000  0.95000  0.45000  1.0000
  Ti  Ti991     1.0  0.40000  0.90000  0.50000  1.0000
  Ti  Ti992     1.0  0.45000  0.95000  0.55000  1.0000
  Ti  Ti993     1.0  0.40000  0.90000  0.60000  1.0000
  Ti  Ti994     1.0  0.45000  0.95000  0.65000  1.0000
  Ti  Ti995     1.0  0.40000  0.90000  0.70000  1.0000
  Ti  Ti996     1.0  0.45000  0.95000  0.75000  1.0000
  Ti  Ti997     1.0  0.40000  0.90000  0.80000  1.0000
  Ti  Ti998     1.0  0.45000  0.95000  0.85000  1.0000
  Ti  Ti999     1.0  0.40000  0.90000  0.90000  1.0000
  Ti  Ti1000    1.0  0.45000  0.95000  0.95000  1.0000
  Ti  Ti1001    1.0  0.50000  0.00000  0.00000  1.0000
  Ti  Ti1002    1.0  0.55000  0.05000  0.05000  1.0000
  Ti  Ti1003    1.0  0.50000  0.00000  0.10000  1.0000
  Ti  Ti1004    1.0  0.55000  0.05000  0.15000  1.0000
  Ti  Ti1005    1.0  0.50000  0.00000  0.20000  1.0000
  Ti  Ti1006    1.0  0.55000  0.05000  0.25000  1.0000
  Ti  Ti1007    1.0  0.50000  0.00000  0.30000  1.0000
  Ti  Ti1008    1.0  0.55000  0.05000  0.35000  1.0000
  Ti  Ti1009    1.0  0.50000  0.00000  0.40000  1.0000
  Ti  Ti1010    1.0  0.55000  0.05000  0.45000  1.0000
  Ti  Ti1011    1.0  0.50000  0.00000  0.50000  1.0000
  Ti  Ti1012    1.0  0.55000  0.05000  0.55000  1.0000
  Ti  Ti1013    1.0  0.50000  0.00000  0.60000  1.0000
  Ti  Ti1014    1.0  0.55000  0.05000  0.65000  1.0000
  Ti  Ti1015    1.0  0.50000  0.00000  0.70000  1.0000
  Ti  Ti1016    1.0  0.55000  0.05000  0.75000  1.0000
  Ti  Ti1017    1.0  0.50000  0.00000  0.80000  1.0000
  Ti  Ti1018    1.0  0.55000  0.05000  0.85000  1.0000
  Ti  Ti1019    1.0  0.50000  0.00000  0.90000  1.0000
  Ti  Ti1020    1.0  0.55000  0.05000  0.95000  1.0000
  Ti  Ti1021    1.0  0.50000  0.10000  0.00000  1.0000
  Ti  Ti1022    1.0  0.55000  0.15000  0.05000  1.0000
  Ti  Ti1023    1.0  0.50000  0.10000  0.10000  1.0000
  Ti  Ti1024    1.0  0.55000  0.15000  0.15000  1.0000
  Ti  Ti1025    1.0  0.50000  0.10000  0.20000  1.0000
  Ti  Ti1026    1.0  0.55000  0.15000  0.25000  1.0000
  Ti  Ti1027    1.0  0.50000  0.10000  0.30000  1.0000
  Ti  Ti1028    1.0  0.55000  0.15000  0.35000  1.0000
  Ti  Ti1029    1.0  0.50000  0.10000  0.40000  1.0000
  Ti  Ti1030    1.0  0.55000  0.15000  0.45000  1.0000
  Ti  Ti1031    1.0  0.50000  0.10000  0.50000  1.0000
  Ti  Ti1032    1.0  0.55000  0.15000  0.55000  1.0000
  Ti  Ti1033    1.0  0.50000  0.10000  0.60000  1.0000
  Ti  Ti1034    1.0  0.55000  0.15000  0.65000  1.0000
  Ti  Ti1035    1.0  0.50000  0.10000  0.70000  1.0000
  Ti  Ti1036    1.0  0.55000  0.15000  0.75000  1.0000
  Ti  Ti1037    1.0  0.50000  0.10000  0.80000  1.0000
  Ti  Ti1038    1.0  0.55000  0.15000  0.85000  1.0000
  Ti  Ti1039    1.0  0.50000  0.10000  0.90000  1.0000
  Ti  Ti1040    1.0  0.55000  0.15000  0.95000  1.0000
  Ti  Ti1041    1.0  0.50000  0.20000  0.00000  1.0000
  Ti  Ti1042    1.0  0.55000  0.25000  0.05000  1.0000
  Ti  Ti1043    1.0  0.50000  0.20000  0.10000  1.0000
  Ti  Ti1044    1.0  0.55000  0.25000  0.15000  1.0000
  Ti  Ti1045    1.0  0.50000  0.20000  0.20000  1.0000
  Ti  Ti1046    1.0  0.55000  0.25000  0.25000  1.0000
  Ti  Ti1047    1.0  0.50000  0.20000  0.30000  1.0000
  Ti  Ti1048    1.0  0.55000  0.25000  0.35000  1.0000
  Ti  Ti1049    1.0  0.50000  0.20000  0.40000  1.0000
  Ti  Ti1050    1.0  0.55000  0.25000  0.45000  1.0000
  Ti  Ti1051    1.0  0.50000  0.20000  0.50000  1.0000
  Ti  Ti1052    1.0  0.55000  0.25000  0.55000  1.0000
  Ti  Ti1053    1.0  0.50000  0.20000  0.60000  1.0000
  Ti  Ti1054    1.0  0.55000  0.25000  0.65000  1.0000
  Ti  Ti1055    1.0  0.50000  0.20000  0.70000  1.0000
  Ti  Ti1056    1.0  0.55000  0.25000  0.75000  1.0000
  Ti  Ti1057    1.0  0.50000  0.20000  0.80000  1.0000
  Ti  Ti1058    1.0  0.55000  0.25000  0.85000  1.0000
  Ti  Ti1059    1.0  0.50000  0.20000  0.90000  1.0000
  Ti  Ti1060    1.0  0.55000  0.25000  0.95000  1.0000
  Ti  Ti1061    1.0  0.50000  0.30000  0.00000  1.0000
  Ti  Ti1062    1.0  0.55000  0.35000  0.05000  1.0000
  Ti  Ti1063    1.0  0.50000  0.30000  0.10000  1.0000
  Ti  Ti1064    1.0  0.55000  0.35000  0.15000  1.0000
  Ti  Ti1065    1.0  0.50000  0.30000  0.20000  1.0000
  Ti  Ti1066    1.0  0.55000  0.35000  0.25000  1.0000
  Ti  Ti1067    1.0  0.50000  0.30000  0.30000  1.0000
  Ti  Ti1068    1.0  0.55000  0.35000  0.35000  1.0000
  Ti  Ti1069    1.0  0.50000  0.30000  0.40000  1.0000
  Ti  Ti1070    1.0  0.55000  0.35000  0.45000  1.0000
  Ti  Ti1071    1.0  0.50000  0.30000  0.50000  1.0000
  Ti  Ti1072    1.0  0.55000  0.35000  0.55000  1.0000
  Ti  Ti1073    1.0  0.50000  0.30000  0.60000  1.0000
  Ti  Ti1074    1.0  0.55000  0.35000  0.65000  1.0000
  Ti  Ti1075    1.0  0.50000  0.30000  0.70000  1.0000
  Ti  Ti1076    1.0  0.55000  0.35000  0.75000  1.0000
  Ti  Ti1077    1.0  0.50000  0.30000  0.80000  1.0000
  Ti  Ti1078    1.0  0.55000  0.35000  0.85000  1.0000
  Ti  Ti1079    1.0  0.50000  0.30000  0.90000  1.0000
  Ti  Ti1080    1.0  0.55000  0.35000  0.95000  1.0000
  Ti  Ti1081    1.0  0.50000  0.40000  0.00000  1.0000
  Ti  Ti1082    1.0  0.55000  0.45000  0.05000  1.0000
  Ti  Ti1083    1.0  0.50000  0.40000  0.10000  1.0000
  Ti  Ti1084    1.0  0.55000  0.45000  0.15000  1.0000
  Ti  Ti1085    1.0  0.50000  0.40000  0.20000  1.0000
  Ti  Ti1086    1.0  0.55000  0.45000  0.25000  1.0000
  Ti  Ti1087    1.0  0.50000  0.40000  0.30000  1.0000
  Ti  Ti1088    1.0  0.55000  0.45000  0.35000  1.0000
  Ti  Ti1089    1.0  0.50000  0.40000  0.40000  1.0000
  Ti  Ti1090    1.0  0.55000  0.45000  0.45000  1.0000
  Ti  Ti1091    1.0  0.50000  0.40000  0.50000  1.0000
  Ti  Ti1092    1.0  0.55000  0.45000  0.55000  1.0000
  Ti  Ti1093    1.0  0.50000  0.40000  0.60000  1.0000
  Ti  Ti1094    1.0  0.55000  0.45000  0.65000  1.0000
  Ti  Ti1095    1.0  0.50000  0.40000  0.70000  1.0000
  Ti  Ti1096    1.0  0.55000  0.45000  0.75000  1.0000
  Ti  Ti1097    1.0  0.50000  0.40000  0.80000  1.0000
  Ti  Ti1098    1.0  0.55000  0.45000  0.85000  1.0000
  Ti  Ti1099    1.0  0.50000  0.40000  0.90000  1.0000
  Ti  Ti1100    1.0  0.55000  0.45000  0.95000  1.0000
  Ti  Ti1101    1.0  0.50000  0.50000  0.00000  1.0000
  Ti  Ti1102    1.0  0.55000  0.55000  0.05000  1.0000
  Ti  Ti1103    1.0  0.50000  0.50000  0.10000  1.0000
  Ti  Ti1104    1.0  0.55000  0.55000  0.15000  1.0000
  Ti  Ti1105    1.0  0.50000  0.50000  0.20000  1.0000
  Ti  Ti1106    1.0  0.55000  0.55000  0.25000  1.0000
  Ti  Ti1107    1.0  0.50000  0.50000  0.30000  1.0000
  Ti  Ti1108    1.0  0.55000  0.55000  0.35000  1.0000
  Ti  Ti1109    1.0  0.50000  0.50000  0.40000  1.0000
  Ti  Ti1110    1.0  0.55000  0.55000  0.45000  1.0000
  Ti  Ti1111    1.0  0.50000  0.50000  0.50000  1.0000
  Ti  Ti1112    1.0  0.55000  0.55000  0.55000  1.0000
  Ti  Ti1113    1.0  0.50000  0.50000  0.60000  1.0000
  Ti  Ti1114    1.0  0.55000  0.55000  0.65000  1.0000
  Ti  Ti1115    1.0  0.50000  0.50000  0.70000  1.0000
  Ti  Ti1116    1.0  0.55000  0.55000  0.75000  1.0000
  Ti  Ti1117    1.0  0.50000  0.50000  0.80000  1.0000
  Ti  Ti1118    1.0  0.55000  0.55000  0.85000  1.0000
  Ti  Ti1119    1.0  0.50000  0.50000  0.90000  1.0000
  Ti  Ti1120    1.0  0.55000  0.55000  0.95000  1.0000
  Ti  Ti1121    1.0  0.50000  0.60000  0.00000  1.0000
  Ti  Ti1122    1.0  0.55000  0.65000  0.05000  1.0000
  Ti  Ti1123    1.0  0.50000  0.60000  0.10000  1.0000
  Ti  Ti1124    1.0  0.55000  0.65000  0.15000  1.0000
  Ti  Ti1125    1.0  0.50000  0.60000  0.20000  1.0000
  Ti  Ti1126    1.0  0.55000  0.65000  0.25000  1.0000
  Ti  Ti1127    1.0  0.50000  0.60000  0.30000  1.0000
  Ti  Ti1128    1.0  0.55000  0.65000  0.35000  1.0000
  Ti  Ti1129    1.0  0.50000  0.60000  0.40000  1.0000
  Ti  Ti1130    1.0  0.55000  0.65000  0.45000  1.0000
  Ti  Ti1131    1.0  0.50000  0.60000  0.50000  1.0000
  Ti  Ti1132    1.0  0.55000  0.65000  0.55000  1.0000
  Ti  Ti1133    1.0  0.50000  0.60000  0.60000  1.0000
  Ti  Ti1134    1.0  0.55000  0.65000  0.65000  1.0000
  Ti  Ti1135    1.0  0.50000  0.60000  0.70000  1.0000
  Ti  Ti1136    1.0  0.55000  0.65000  0.75000  1.0000
  Ti  Ti1137    1.0  0.50000  0.60000  0.80000  1.0000
  Ti  Ti1138    1.0  0.55000  0.65000  0.85000  1.0000
  Ti  Ti1139    1.0  0.50000  0.60000  0.90000  1.0000
  Ti  Ti1140    1.0  0.55000  0.65000  0.95000  1.0000
  Ti  Ti1141    1.0  0.50000  0.70000  0.00000  1.0000
  Ti  Ti1142    1.0  0.55000  0.75000  0.05000  1.0000
  Ti  Ti1143    1.0  0.50000  0.70000  0.10000  1.0000
  Ti  Ti1144    1.0  0.55000  0.75000  0.15000  1.0000
  Ti  Ti1145    1.0  0.50000  0.70000  0.20000  1.0000
  Ti  Ti1146    1.0  0.55000  0.75000  0.25000  1.0000
  Ti  Ti1147    1.0  0.50000  0.70000  0.30000  1.0000
  Ti  Ti1148    1.0  0.55000  0.75000  0.35000  1.0000
  Ti  Ti1149    1.0  0.50000  0.70000  0.40000  1.0000
  Ti  Ti1150    1.0  0.55000  0.75000  0.45000  1.0000
  Ti  Ti1151    1.0  0.50000  0.70000  0.50000  1.0000
  Ti  Ti1152    1.0  0.55000  0.75000  0.55000  1.0000
  Ti  Ti1153    1.0  0.50000  0.70000  0.60000  1.0000
  Ti  Ti1154    1.0  0.55000  0.75000  0.65000  1.0000
  Ti  Ti1155    1.0  0.50000  0.70000  0.70000  1.0000
  Ti  Ti1156    1.0  0.55000  0.75000  0.75000  1.0000
  Ti  Ti1157    1.0  0.50000  0.70000  0.80000  1.0000
  Ti  Ti1158    1.0  0.55000  0.75000  0.85000  1.0000
  Ti  Ti1159    1.0  0.50000  0.70000  0.90000  1.0000
  Ti  Ti1160    1.0  0.55000  0.75000  0.95000  1.0000
  Ti  Ti1161    1.0  0.50000  0.80000  0.00000  1.0000
  Ti  Ti1162    1.0  0.55000  0.85000  0.05000  1.0000
  Ti  Ti1163    1.0  0.50000  0.80000  0.10000  1.0000
  Ti  Ti1164    1.0  0.55000  0.85000  0.15000  1.0000
  Ti  Ti1165    1.0  0.50000  0.80000  0.20000  1.0000
  Ti  Ti1166    1.0  0.55000  0.85000  0.25000  1.0000
  Ti  Ti1167    1.0  0.50000  0.80000  0.30000  1.0000
  Ti  Ti1168    1.0  0.55000  0.85000  0.35000  1.0000
  Ti  Ti1169    1.0  0.50000  0.80000  0.40000  1.0000
  Ti  Ti1170    1.0  0.55000  0.85000  0.45000  1.0000
  Ti  Ti1171    1.0  0.50000  0.80000  0.50000  1.0000
  Ti  Ti1172    1.0  0.55000  0.85000  0.55000  1.0000
  Ti  Ti1173    1.0  0.50000  0.80000  0.60000  1.0000
  Ti  Ti1174    1.0  0.55000  0.85000  0.65000  1.0000
  Ti  Ti1175    1.0  0.50000  0.80000  0.70000  1.0000
  Ti  Ti1176    1.0  0.55000  0.85000  0.75000  1.0000
  Ti  Ti1177    1.0  0.50000  0.80000  0.80000  1.0000
  Ti  Ti1178    1.0  0.55000  0.85000  0.85000  1.0000
  Ti  Ti1179    1.0  0.50000  0.80000  0.90000  1.0000
  Ti  Ti1180    1.0  0.55000  0.85000  0.95000  1.0000
  Ti  Ti1181    1.0  0.50000  0.90000  0.00000  1.0000
  Ti  Ti1182    1.0  0.55000  0.95000  0.05000  1.0000
  Ti  Ti1183    1.0  0.50000  0.90000  0.10000  1.0000
  Ti  Ti1184    1.0  0.55000  0.95000  0.15000  1.0000
  Ti  Ti1185    1.0  0.50000  0.90000  0.20000  1.0000
  Ti  Ti1186    1.0  0.55000  0.95000  0.25000  1.0000
  Ti  Ti1187    1.0  0.50000  0.90000  0.30000  1.0000
  Ti  Ti1188    1.0  0.55000  0.95000  0.35000  1.0000
  Ti  Ti1189    1.0  0.50000  0.90000  0.40000  1.0000
  Ti  Ti1190    1.0  0.55000  0.95000  0.45000  1.0000
  Ti  Ti1191    1.0  0.50000  0.90000  0.50000  1.0000
  Ti  Ti1192    1.0  0.55000  0.95000  0.55000  1.0000
  Ti  Ti1193    1.0  0.50000  0.90000  0.60000  1.0000
  Ti  Ti1194    1.0  0.55000  0.95000  0.65000  1.0000
  Ti  Ti1195    1.0  0.50000  0.90000  0.70000  1.0000
  Ti  Ti1196    1.0  0.55000  0.95000  0.75000  1.0000
  Ti  Ti1197    1.0  0.50000  0.90000  0.80000  1.0000
  Ti  Ti1198    1.0  0.55000  0.95000  0.85000  1.0000
  Ti  Ti1199    1.0  0.50000  0.90000  0.90000  1.0000
  Ti  Ti1200    1.0  0.55000  0.95000  0.95000  1.0000
  Ti  Ti1201    1.0  0.60000  0.00000  0.00000  1.0000
  Ti  Ti1202    1.0  0.65000  0.05000  0.05000  1.0000
  Ti  Ti1203    1.0  0.60000  0.00000  0.10000  1.0000
  Ti  Ti1204    1.0  0.65000  0.05000  0.15000  1.0000
  Ti  Ti1205    1.0  0.60000  0.00000  0.20000  1.0000
  Ti  Ti1206    1.0  0.65000  0.05000  0.25000  1.0000
  Ti  Ti1207    1.0  0.60000  0.00000  0.30000  1.0000
  Ti  Ti1208    1.0  0.65000  0.05000  0.35000  1.0000
  Ti  Ti1209    1.0  0.60000  0.00000  0.40000  1.0000
  Ti  Ti1210    1.0  0.65000  0.05000  0.45000  1.0000
  Ti  Ti1211    1.0  0.60000  0.00000  0.50000  1.0000
  Ti  Ti1212    1.0  0.65000  0.05000  0.55000  1.0000
  Ti  Ti1213    1.0  0.60000  0.00000  0.60000  1.0000
  Ti  Ti1214    1.0  0.65000  0.05000  0.65000  1.0000
  Ti  Ti1215    1.0  0.60000  0.00000  0.70000  1.0000
  Ti  Ti1216    1.0  0.65000  0.05000  0.75000  1.0000
  Ti  Ti1217    1.0  0.60000  0.00000  0.80000  1.0000
  Ti  Ti1218    1.0  0.65000  0.05000  0.85000  1.0000
  Ti  Ti1219    1.0  0.60000  0.00000  0.90000  1.0000
  Ti  Ti1220    1.0  0.65000  0.05000  0.95000  1.0000
  Ti  Ti1221    1.0  0.60000  0.10000  0.00000  1.0000
  Ti  Ti1222    1.0  0.65000  0.15000  0.05000  1.0000
  Ti  Ti1223    1.0  0.60000  0.10000  0.10000  1.0000
  Ti  Ti1224    1.0  0.65000  0.15000  0.15000  1.0000
  Ti  Ti1225    1.0  0.60000  0.10000  0.20000  1.0000
  Ti  Ti1226    1.0  0.65000  0.15000  0.25000  1.0000
  Ti  Ti1227    1.0  0.60000  0.10000  0.30000  1.0000
  Ti  Ti1228    1.0  0.65000  0.15000  0.35000  1.0000
  Ti  Ti1229    1.0  0.60000  0.10000  0.40000  1.0000
  Ti  Ti1230    1.0  0.65000  0.15000  0.45000  1.0000
  Ti  Ti1231    1.0  0.60000  0.10000  0.50000  1.0000
  Ti  Ti1232    1.0  0.65000  0.15000  0.55000  1.0000
  Ti  Ti1233    1.0  0.60000  0.10000  0.60000  1.0000
  Ti  Ti1234    1.0  0.65000  0.15000  0.65000  1.0000
  Ti  Ti1235    1.0  0.60000  0.10000  0.70000  1.0000
  Ti  Ti1236    1.0  0.65000  0.15000  0.75000  1.0000
  Ti  Ti1237    1.0  0.60000  0.10000  0.80000  1.0000
  Ti  Ti1238    1.0  0.65000  0.15000  0.85000  1.0000
  Ti  Ti1239    1.0  0.60000  0.10000  0.90000  1.0000
  Ti  Ti1240    1.0  0.65000  0.15000  0.95000  1.0000
  Ti  Ti1241    1.0  0.60000  0.20000  0.00000  1.0000
  Ti  Ti1242    1.0  0.65000  0.25000  0.05000  1.0000
  Ti  Ti1243    1.0  0.60000  0.20000  0.10000  1.0000
  Ti  Ti1244    1.0  0.65000  0.25000  0.15000  1.0000
  Ti  Ti1245    1.0  0.60000  0.20000  0.20000  1.0000
  Ti  Ti1246    1.0  0.65000  0.25000  0.25000  1.0000
  Ti  Ti1247    1.0  0.60000  0.20000  0.30000  1.0000
  Ti  Ti1248    1.0  0.65000  0.25000  0.35000  1.0000
  Ti  Ti1249    1.0  0.60000  0.20000  0.40000  1.0000
  Ti  Ti1250    1.0  0.65000  0.25000  0.45000  1.0000
  Ti  Ti1251    1.0  0.60000  0.20000  0.50000  1.0000
  Ti  Ti1252    1.0  0.65000  0.25000  0.55000  1.0000
  Ti  Ti1253    1.0  0.60000  0.20000  0.60000  1.0000
  Ti  Ti1254    1.0  0.65000  0.25000  0.65000  1.0000
  Ti  Ti1255    1.0  0.60000  0.20000  0.70000  1.0000
  Ti  Ti1256    1.0  0.65000  0.25000  0.75000  1.0000
  Ti  Ti1257    1.0  0.60000  0.20000  0.80000  1.0000
  Ti  Ti1258    1.0  0.65000  0.25000  0.85000  1.0000
  Ti  Ti1259    1.0  0.60000  0.20000  0.90000  1.0000
  Ti  Ti1260    1.0  0.65000  0.25000  0.95000  1.0000
  Ti  Ti1261    1.0  0.60000  0.30000  0.00000  1.0000
  Ti  Ti1262    1.0  0.65000  0.35000  0.05000  1.0000
  Ti  Ti1263    1.0  0.60000  0.30000  0.10000  1.0000
  Ti  Ti1264    1.0  0.65000  0.35000  0.15000  1.0000
  Ti  Ti1265    1.0  0.60000  0.30000  0.20000  1.0000
  Ti  Ti1266    1.0  0.65000  0.35000  0.25000  1.0000
  Ti  Ti1267    1.0  0.60000  0.30000  0.30000  1.0000
  Ti  Ti1268    1.0  0.65000  0.35000  0.35000  1.0000
  Ti  Ti1269    1.0  0.60000  0.30000  0.40000  1.0000
  Ti  Ti1270    1.0  0.65000  0.35000  0.45000  1.0000
  Ti  Ti1271    1.0  0.60000  0.30000  0.50000  1.0000
  Ti  Ti1272    1.0  0.65000  0.35000  0.55000  1.0000
  Ti  Ti1273    1.0  0.60000  0.30000  0.60000  1.0000
  Ti  Ti1274    1.0  0.65000  0.35000  0.65000  1.0000
  Ti  Ti1275    1.0  0.60000  0.30000  0.70000  1.0000
  Ti  Ti1276    1.0  0.65000  0.35000  0.75000  1.0000
  Ti  Ti1277    1.0  0.60000  0.30000  0.80000  1.0000
  Ti  Ti1278    1.0  0.65000  0.35000  0.85000  1.0000
  Ti  Ti1279    1.0  0.60000  0.30000  0.90000  1.0000
  Ti  Ti1280    1.0  0.65000  0.35000  0.95000  1.0000
  Ti  Ti1281    1.0  0.60000  0.40000  0.00000  1.0000
  Ti  Ti1282    1.0  0.65000  0.45000  0.05000  1.0000
  Ti  Ti1283    1.0  0.60000  0.40000  0.10000  1.0000
  Ti  Ti1284    1.0  0.65000  0.45000  0.15000  1.0000
  Ti  Ti1285    1.0  0.60000  0.40000  0.20000  1.0000
  Ti  Ti1286    1.0  0.65000  0.45000  0.25000  1.0000
  Ti  Ti1287    1.0  0.60000  0.40000  0.30000  1.0000
  Ti  Ti1288    1.0  0.65000  0.45000  0.35000  1.0000
  Ti  Ti1289    1.0  0.60000  0.40000  0.40000  1.0000
  Ti  Ti1290    1.0  0.65000  0.45000  0.45000  1.0000
  Ti  Ti1291    1.0  0.60000  0.40000  0.50000  1.0000
  Ti  Ti1292    1.0  0.65000  0.45000  0.55000  1.0000
  Ti  Ti1293    1.0  0.60000  0.40000  0.60000  1.0000
  Ti  Ti1294    1.0  0.65000  0.45000  0.65000  1.0000
  Ti  Ti1295    1.0  0.60000  0.40000  0.70000  1.0000
  Ti  Ti1296    1.0  0.65000  0.45000  0.75000  1.0000
  Ti  Ti1297    1.0  0.60000  0.40000  0.80000  1.0000
  Ti  Ti1298    1.0  0.65000  0.45000  0.85000  1.0000
  Ti  Ti1299    1.0  0.60000  0.40000  0.90000  1.0000
  Ti  Ti1300    1.0  0.65000  0.45000  0.95000  1.0000
  Ti  Ti1301    1.0  0.60000  0.50000  0.00000  1.0000
  Ti  Ti1302    1.0  0.65000  0.55000  0.05000  1.0000
  Ti  Ti1303    1.0  0.60000  0.50000  0.10000  1.0000
  Ti  Ti1304    1.0  0.65000  0.55000  0.15000  1.0000
  Ti  Ti1305    1.0  0.60000  0.50000  0.20000  1.0000
  Ti  Ti1306    1.0  0.65000  0.55000  0.25000  1.0000
  Ti  Ti1307    1.0  0.60000  0.50000  0.30000  1.0000
  Ti  Ti1308    1.0  0.65000  0.55000  0.35000  1.0000
  Ti  Ti1309    1.0  0.60000  0.50000  0.40000  1.0000
  Ti  Ti1310    1.0  0.65000  0.55000  0.45000  1.0000
  Ti  Ti1311    1.0  0.60000  0.50000  0.50000  1.0000
  Ti  Ti1312    1.0  0.65000  0.55000  0.55000  1.0000
  Ti  Ti1313    1.0  0.60000  0.50000  0.60000  1.0000
  Ti  Ti1314    1.0  0.65000  0.55000  0.65000  1.0000
  Ti  Ti1315    1.0  0.60000  0.50000  0.70000  1.0000
  Ti  Ti1316    1.0  0.65000  0.55000  0.75000  1.0000
  Ti  Ti1317    1.0  0.60000  0.50000  0.80000  1.0000
  Ti  Ti1318    1.0  0.65000  0.55000  0.85000  1.0000
  Ti  Ti1319    1.0  0.60000  0.50000  0.90000  1.0000
  Ti  Ti1320    1.0  0.65000  0.55000  0.95000  1.0000
  Ti  Ti1321    1.0  0.60000  0.60000  0.00000  1.0000
  Ti  Ti1322    1.0  0.65000  0.65000  0.05000  1.0000
  Ti  Ti1323    1.0  0.60000  0.60000  0.10000  1.0000
  Ti  Ti1324    1.0  0.65000  0.65000  0.15000  1.0000
  Ti  Ti1325    1.0  0.60000  0.60000  0.20000  1.0000
  Ti  Ti1326    1.0  0.65000  0.65000  0.25000  1.0000
  Ti  Ti1327    1.0  0.60000  0.60000  0.30000  1.0000
  Ti  Ti1328    1.0  0.65000  0.65000  0.35000  1.0000
  Ti  Ti1329    1.0  0.60000  0.60000  0.40000  1.0000
  Ti  Ti1330    1.0  0.65000  0.65000  0.45000  1.0000
  Ti  Ti1331    1.0  0.60000  0.60000  0.50000  1.0000
  Ti  Ti1332    1.0  0.65000  0.65000  0.55000  1.0000
  Ti  Ti1333    1.0  0.60000  0.60000  0.60000  1.0000
  Ti  Ti1334    1.0  0.65000  0.65000  0.65000  1.0000
  Ti  Ti1335    1.0  0.60000  0.60000  0.70000  1.0000
  Ti  Ti1336    1.0  0.65000  0.65000  0.75000  1.0000
  Ti  Ti1337    1.0  0.60000  0.60000  0.80000  1.0000
  Ti  Ti1338    1.0  0.65000  0.65000  0.85000  1.0000
  Ti  Ti1339    1.0  0.60000  0.60000  0.90000  1.0000
  Ti  Ti1340    1.0  0.65000  0.65000  0.95000  1.0000
  Ti  Ti1341    1.0  0.60000  0.70000  0.00000  1.0000
  Ti  Ti1342    1.0  0.65000  0.75000  0.05000  1.0000
  Ti  Ti1343    1.0  0.60000  0.70000  0.10000  1.0000
  Ti  Ti1344    1.0  0.65000  0.75000  0.15000  1.0000
  Ti  Ti1345    1.0  0.60000  0.70000  0.20000  1.0000
  Ti  Ti1346    1.0  0.65000  0.75000  0.25000  1.0000
  Ti  Ti1347    1.0  0.60000  0.70000  0.30000  1.0000
  Ti  Ti1348    1.0  0.65000  0.75000  0.35000  1.0000
  Ti  Ti1349    1.0  0.60000  0.70000  0.40000  1.0000
  Ti  Ti1350    1.0  0.65000  0.75000  0.45000  1.0000
  Ti  Ti1351    1.0  0.60000  0.70000  0.50000  1.0000
  Ti  Ti1352    1.0  0.65000  0.75000  0.55000  1.0000
  Ti  Ti1353    1.0  0.60000  0.70000  0.60000  1.0000
  Ti  Ti1354    1.0  0.65000  0.75000  0.65000  1.0000
  Ti  Ti1355    1.0  0.60000  0.70000  0.70000  1.0000
  Ti  Ti1356    1.0  0.65000  0.75000  0.75000  1.0000
  Ti  Ti1357    1.0  0.60000  0.70000  0.80000  1.0000
  Ti  Ti1358    1.0  0.65000  0.75000  0.85000  1.0000
  Ti  Ti1359    1.0  0.60000  0.70000  0.90000  1.0000
  Ti  Ti1360    1.0  0.65000  0.75000  0.95000  1.0000
  Ti  Ti1361    1.0  0.60000  0.80000  0.00000  1.0000
  Ti  Ti1362    1.0  0.65000  0.85000  0.05000  1.0000
  Ti  Ti1363    1.0  0.60000  0.80000  0.10000  1.0000
  Ti  Ti1364    1.0  0.65000  0.85000  0.15000  1.0000
  Ti  Ti1365    1.0  0.60000  0.80000  0.20000  1.0000
  Ti  Ti1366    1.0  0.65000  0.85000  0.25000  1.0000
  Ti  Ti1367    1.0  0.60000  0.80000  0.30000  1.0000
  Ti  Ti1368    1.0  0.65000  0.85000  0.35000  1.0000
  Ti  Ti1369    1.0  0.60000  0.80000  0.40000  1.0000
  Ti  Ti1370    1.0  0.65000  0.85000  0.45000  1.0000
  Ti  Ti1371    1.0  0.60000  0.80000  0.50000  1.0000
  Ti  Ti1372    1.0  0.65000  0.85000  0.55000  1.0000
  Ti  Ti1373    1.0  0.60000  0.80000  0.60000  1.0000
  Ti  Ti1374    1.0  0.65000  0.85000  0.65000  1.0000
  Ti  Ti1375    1.0  0.60000  0.80000  0.70000  1.0000
  Ti  Ti1376    1.0  0.65000  0.85000  0.75000  1.0000
  Ti  Ti1377    1.0  0.60000  0.80000  0.80000  1.0000
  Ti  Ti1378    1.0  0.65000  0.85000  0.85000  1.0000
  Ti  Ti1379    1.0  0.60000  0.80000  0.90000  1.0000
  Ti  Ti1380    1.0  0.65000  0.85000  0.95000  1.0000
  Ti  Ti1381    1.0  0.60000  0.90000  0.00000  1.0000
  Ti  Ti1382    1.0  0.65000  0.95000  0.05000  1.0000
  Ti  Ti1383    1.0  0.60000  0.90000  0.10000  1.0000
  Ti  Ti1384    1.0  0.65000  0.95000  0.15000  1.0000
  Ti  Ti1385    1.0  0.60000  0.90000  0.20000  1.0000
  Ti  Ti1386    1.0  0.65000  0.95000  0.25000  1.0000
  Ti  Ti1387    1.0  0.60000  0.90000  0.30000  1.0000
  Ti  Ti1388    1.0  0.65000  0.95000  0.35000  1.0000
  Ti  Ti1389    1.0  0.60000  0.90000  0.40000  1.0000
  Ti  Ti1390    1.0  0.65000  0.95000  0.45000  1.0000
  Ti  Ti1391    1.0  0.60000  0.90000  0.50000  1.0000
  Ti  Ti1392    1.0  0.65000  0.95000  0.55000  1.0000
  Ti  Ti1393    1.0  0.60000  0.90000  0.60000  1.0000
  Ti  Ti1394    1.0  0.65000  0.95000  0.65000  1.0000
  Ti  Ti1395    1.0  0.60000  0.90000  0.70000  1.0000
  Ti  Ti1396    1.0  0.65000  0.95000  0.75000  1.0000
  Ti  Ti1397    1.0  0.60000  0.90000  0.80000  1.0000
  Ti  Ti1398    1.0  0.65000  0.95000  0.85000  1.0000
  Ti  Ti1399    1.0  0.60000  0.90000  0.90000  1.0000
  Ti  Ti1400    1.0  0.65000  0.95000  0.95000  1.0000
  Ti  Ti1401    1.0  0.70000  0.00000  0.00000  1.0000
  Ti  Ti1402    1.0  0.75000  0.05000  0.05000  1.0000
  Ti  Ti1403    1.0  0.70000  0.00000  0.10000  1.0000
  Ti  Ti1404    1.0  0.75000  0.05000  0.15000  1.0000
  Ti  Ti1405    1.0  0.70000  0.00000  0.20000  1.0000
  Ti  Ti1406    1.0  0.75000  0.05000  0.25000  1.0000
  Ti  Ti1407    1.0  0.70000  0.00000  0.30000  1.0000
  Ti  Ti1408    1.0  0.75000  0.05000  0.35000  1.0000
  Ti  Ti1409    1.0  0.70000  0.00000  0.40000  1.0000
  Ti  Ti1410    1.0  0.75000  0.05000  0.45000  1.0000
  Ti  Ti1411    1.0  0.70000  0.00000  0.50000  1.0000
  Ti  Ti1412    1.0  0.75000  0.05000  0.55000  1.0000
  Ti  Ti1413    1.0  0.70000  0.00000  0.60000  1.0000
  Ti  Ti1414    1.0  0.75000  0.05000  0.65000  1.0000
  Ti  Ti1415    1.0  0.70000  0.00000  0.70000  1.0000
  Ti  Ti1416    1.0  0.75000  0.05000  0.75000  1.0000
  Ti  Ti1417    1.0  0.70000  0.00000  0.80000  1.0000
  Ti  Ti1418    1.0  0.75000  0.05000  0.85000  1.0000
  Ti  Ti1419    1.0  0.70000  0.00000  0.90000  1.0000
  Ti  Ti1420    1.0  0.75000  0.05000  0.95000  1.0000
  Ti  Ti1421    1.0  0.70000  0.10000  0.00000  1.0000
  Ti  Ti1422    1.0  0.75000  0.15000  0.05000  1.0000
  Ti  Ti1423    1.0  0.70000  0.10000  0.10000  1.0000
  Ti  Ti1424    1.0  0.75000  0.15000  0.15000  1.0000
  Ti  Ti1425    1.0  0.70000  0.10000  0.20000  1.0000
  Ti  Ti1426    1.0  0.75000  0.15000  0.25000  1.0000
  Ti  Ti1427    1.0  0.70000  0.10000  0.30000  1.0000
  Ti  Ti1428    1.0  0.75000  0.15000  0.35000  1.0000
  Ti  Ti1429    1.0  0.70000  0.10000  0.40000  1.0000
  Ti  Ti1430    1.0  0.75000  0.15000  0.45000  1.0000
  Ti  Ti1431    1.0  0.70000  0.10000  0.50000  1.0000
  Ti  Ti1432    1.0  0.75000  0.15000  0.55000  1.0000
  Ti  Ti1433    1.0  0.70000  0.10000  0.60000  1.0000
  Ti  Ti1434    1.0  0.75000  0.15000  0.65000  1.0000
  Ti  Ti1435    1.0  0.70000  0.10000  0.70000  1.0000
  Ti  Ti1436    1.0  0.75000  0.15000  0.75000  1.0000
  Ti  Ti1437    1.0  0.70000  0.10000  0.80000  1.0000
  Ti  Ti1438    1.0  0.75000  0.15000  0.85000  1.0000
  Ti  Ti1439    1.0  0.70000  0.10000  0.90000  1.0000
  Ti  Ti1440    1.0  0.75000  0.15000  0.95000  1.0000
  Ti  Ti1441    1.0  0.70000  0.20000  0.00000  1.0000
  Ti  Ti1442    1.0  0.75000  0.25000  0.05000  1.0000
  Ti  Ti1443    1.0  0.70000  0.20000  0.10000  1.0000
  Ti  Ti1444    1.0  0.75000  0.25000  0.15000  1.0000
  Ti  Ti1445    1.0  0.70000  0.20000  0.20000  1.0000
  Ti  Ti1446    1.0  0.75000  0.25000  0.25000  1.0000
  Ti  Ti1447    1.0  0.70000  0.20000  0.30000  1.0000
  Ti  Ti1448    1.0  0.75000  0.25000  0.35000  1.0000
  Ti  Ti1449    1.0  0.70000  0.20000  0.40000  1.0000
  Ti  Ti1450    1.0  0.75000  0.25000  0.45000  1.0000
  Ti  Ti1451    1.0  0.70000  0.20000  0.50000  1.0000
  Ti  Ti1452    1.0  0.75000  0.25000  0.55000  1.0000
  Ti  Ti1453    1.0  0.70000  0.20000  0.60000  1.0000
  Ti  Ti1454    1.0  0.75000  0.25000  0.65000  1.0000
  Ti  Ti1455    1.0  0.70000  0.20000  0.70000  1.0000
  Ti  Ti1456    1.0  0.75000  0.25000  0.75000  1.0000
  Ti  Ti1457    1.0  0.70000  0.20000  0.80000  1.0000
  Ti  Ti1458    1.0  0.75000  0.25000  0.85000  1.0000
  Ti  Ti1459    1.0  0.70000  0.20000  0.90000  1.0000
  Ti  Ti1460    1.0  0.75000  0.25000  0.95000  1.0000
  Ti  Ti1461    1.0  0.70000  0.30000  0.00000  1.0000
  Ti  Ti1462    1.0  0.75000  0.35000  0.05000  1.0000
  Ti  Ti1463    1.0  0.70000  0.30000  0.10000  1.0000
  Ti  Ti1464    1.0  0.75000  0.35000  0.15000  1.0000
  Ti  Ti1465    1.0  0.70000  0.30000  0.20000  1.0000
  Ti  Ti1466    1.0  0.75000  0.35000  0.25000  1.0000
  Ti  Ti1467    1.0  0.70000  0.30000  0.30000  1.0000
  Ti  Ti1468    1.0  0.75000  0.35000  0.35000  1.0000
  Ti  Ti1469    1.0  0.70000  0.30000  0.40000  1.0000
  Ti  Ti1470    1.0  0.75000  0.35000  0.45000  1.0000
  Ti  Ti1471    1.0  0.70000  0.30000  0.50000  1.0000
  Ti  Ti1472    1.0  0.75000  0.35000  0.55000  1.0000
  Ti  Ti1473    1.0  0.70000  0.30000  0.60000  1.0000
  Ti  Ti1474    1.0  0.75000  0.35000  0.65000  1.0000
  Ti  Ti1475    1.0  0.70000  0.30000  0.70000  1.0000
  Ti  Ti1476    1.0  0.75000  0.35000  0.75000  1.0000
  Ti  Ti1477    1.0  0.70000  0.30000  0.80000  1.0000
  Ti  Ti1478    1.0  0.75000  0.35000  0.85000  1.0000
  Ti  Ti1479    1.0  0.70000  0.30000  0.90000  1.0000
  Ti  Ti1480    1.0  0.75000  0.35000  0.95000  1.0000
  Ti  Ti1481    1.0  0.70000  0.40000  0.00000  1.0000
  Ti  Ti1482    1.0  0.75000  0.45000  0.05000  1.0000
  Ti  Ti1483    1.0  0.70000  0.40000  0.10000  1.0000
  Ti  Ti1484    1.0  0.75000  0.45000  0.15000  1.0000
  Ti  Ti1485    1.0  0.70000  0.40000  0.20000  1.0000
  Ti  Ti1486    1.0  0.75000  0.45000  0.25000  1.0000
  Ti  Ti1487    1.0  0.70000  0.40000  0.30000  1.0000
  Ti  Ti1488    1.0  0.75000  0.45000  0.35000  1.0000
  Ti  Ti1489    1.0  0.70000  0.40000  0.40000  1.0000
  Ti  Ti1490    1.0  0.75000  0.45000  0.45000  1.0000
  Ti  Ti1491    1.0  0.70000  0.40000  0.50000  1.0000
  Ti  Ti1492    1.0  0.75000  0.45000  0.55000  1.0000
  Ti  Ti1493    1.0  0.70000  0.40000  0.60000  1.0000
  Ti  Ti1494    1.0  0.75000  0.45000  0.65000  1.0000
  Ti  Ti1495    1.0  0.70000  0.40000  0.70000  1.0000
  Ti  Ti1496    1.0  0.75000  0.45000  0.75000  1.0000
  Ti  Ti1497    1.0  0.70000  0.40000  0.80000  1.0000
  Ti  Ti1498    1.0  0.75000  0.45000  0.85000  1.0000
  Ti  Ti1499    1.0  0.70000  0.40000  0.90000  1.0000
  Ti  Ti1500    1.0  0.75000  0.45000  0.95000  1.0000
  Ti  Ti1501    1.0  0.70000  0.50000  0.00000  1.0000
  Ti  Ti1502    1.0  0.75000  0.55000  0.05000  1.0000
  Ti  Ti1503    1.0  0.70000  0.50000  0.10000  1.0000
  Ti  Ti1504    1.0  0.75000  0.55000  0.15000  1.0000
  Ti  Ti1505    1.0  0.70000  0.50000  0.20000  1.0000
  Ti  Ti1506    1.0  0.75000  0.55000  0.25000  1.0000
  Ti  Ti1507    1.0  0.70000  0.50000  0.30000  1.0000
  Ti  Ti1508    1.0  0.75000  0.55000  0.35000  1.0000
  Ti  Ti1509    1.0  0.70000  0.50000  0.40000  1.0000
  Ti  Ti1510    1.0  0.75000  0.55000  0.45000  1.0000
  Ti  Ti1511    1.0  0.70000  0.50000  0.50000  1.0000
  Ti  Ti1512    1.0  0.75000  0.55000  0.55000  1.0000
  Ti  Ti1513    1.0  0.70000  0.50000  0.60000  1.0000
  Ti  Ti1514    1.0  0.75000  0.55000  0.65000  1.0000
  Ti  Ti1515    1.0  0.70000  0.50000  0.70000  1.0000
  Ti  Ti1516    1.0  0.75000  0.55000  0.75000  1.0000
  Ti  Ti1517    1.0  0.70000  0.50000  0.80000  1.0000
  Ti  Ti1518    1.0  0.75000  0.55000  0.85000  1.0000
  Ti  Ti1519    1.0  0.70000  0.50000  0.90000  1.0000
  Ti  Ti1520    1.0  0.75000  0.55000  0.95000  1.0000
  Ti  Ti1521    1.0  0.70000  0.60000  0.00000  1.0000
  Ti  Ti1522    1.0  0.75000  0.65000  0.05000  1.0000
  Ti  Ti1523    1.0  0.70000  0.60000  0.10000  1.0000
  Ti  Ti1524    1.0  0.75000  0.65000  0.15000  1.0000
  Ti  Ti1525    1.0  0.70000  0.60000  0.20000  1.0000
  Ti  Ti1526    1.0  0.75000  0.65000  0.25000  1.0000
  Ti  Ti1527    1.0  0.70000  0.60000  0.30000  1.0000
  Ti  Ti1528    1.0  0.75000  0.65000  0.35000  1.0000
  Ti  Ti1529    1.0  0.70000  0.60000  0.40000  1.0000
  Ti  Ti1530    1.0  0.75000  0.65000  0.45000  1.0000
  Ti  Ti1531    1.0  0.70000  0.60000  0.50000  1.0000
  Ti  Ti1532    1.0  0.75000  0.65000  0.55000  1.0000
  Ti  Ti1533    1.0  0.70000  0.60000  0.60000  1.0000
  Ti  Ti1534    1.0  0.75000  0.65000  0.65000  1.0000
  Ti  Ti1535    1.0  0.70000  0.60000  0.70000  1.0000
  Ti  Ti1536    1.0  0.75000  0.65000  0.75000  1.0000
  Ti  Ti1537    1.0  0.70000  0.60000  0.80000  1.0000
  Ti  Ti1538    1.0  0.75000  0.65000  0.85000  1.0000
  Ti  Ti1539    1.0  0.70000  0.60000  0.90000  1.0000
  Ti  Ti1540    1.0  0.75000  0.65000  0.95000  1.0000
  Ti  Ti1541    1.0  0.70000  0.70000  0.00000  1.0000
  Ti  Ti1542    1.0  0.75000  0.75000  0.05000  1.0000
  Ti  Ti1543    1.0  0.70000  0.70000  0.10000  1.0000
  Ti  Ti1544    1.0  0.75000  0.75000  0.15000  1.0000
  Ti  Ti1545    1.0  0.70000  0.70000  0.20000  1.0000
  Ti  Ti1546    1.0  0.75000  0.75000  0.25000  1.0000
  Ti  Ti1547    1.0  0.70000  0.70000  0.30000  1.0000
  Ti  Ti1548    1.0  0.75000  0.75000  0.35000  1.0000
  Ti  Ti1549    1.0  0.70000  0.70000  0.40000  1.0000
  Ti  Ti1550    1.0  0.75000  0.75000  0.45000  1.0000
  Ti  Ti1551    1.0  0.70000  0.70000  0.50000  1.0000
  Ti  Ti1552    1.0  0.75000  0.75000  0.55000  1.0000
  Ti  Ti1553    1.0  0.70000  0.70000  0.60000  1.0000
  Ti  Ti1554    1.0  0.75000  0.75000  0.65000  1.0000
  Ti  Ti1555    1.0  0.70000  0.70000  0.70000  1.0000
  Ti  Ti1556    1.0  0.75000  0.75000  0.75000  1.0000
  Ti  Ti1557    1.0  0.70000  0.70000  0.80000  1.0000
  Ti  Ti1558    1.0  0.75000  0.75000  0.85000  1.0000
  Ti  Ti1559    1.0  0.70000  0.70000  0.90000  1.0000
  Ti  Ti1560    1.0  0.75000  0.75000  0.95000  1.0000
  Ti  Ti1561    1.0  0.70000  0.80000  0.00000  1.0000
  Ti  Ti1562    1.0  0.75000  0.85000  0.05000  1.0000
  Ti  Ti1563    1.0  0.70000  0.80000  0.10000  1.0000
  Ti  Ti1564    1.0  0.75000  0.85000  0.15000  1.0000
  Ti  Ti1565    1.0  0.70000  0.80000  0.20000  1.0000
  Ti  Ti1566    1.0  0.75000  0.85000  0.25000  1.0000
  Ti  Ti1567    1.0  0.70000  0.80000  0.30000  1.0000
  Ti  Ti1568    1.0  0.75000  0.85000  0.35000  1.0000
  Ti  Ti1569    1.0  0.70000  0.80000  0.40000  1.0000
  Ti  Ti1570    1.0  0.75000  0.85000  0.45000  1.0000
  Ti  Ti1571    1.0  0.70000  0.80000  0.50000  1.0000
  Ti  Ti1572    1.0  0.75000  0.85000  0.55000  1.0000
  Ti  Ti1573    1.0  0.70000  0.80000  0.60000  1.0000
  Ti  Ti1574    1.0  0.75000  0.85000  0.65000  1.0000
  Ti  Ti1575    1.0  0.70000  0.80000  0.70000  1.0000
  Ti  Ti1576    1.0  0.75000  0.85000  0.75000  1.0000
  Ti  Ti1577    1.0  0.70000  0.80000  0.80000  1.0000
  Ti  Ti1578    1.0  0.75000  0.85000  0.85000  1.0000
  Ti  Ti1579    1.0  0.70000  0.80000  0.90000  1.0000
  Ti  Ti1580    1.0  0.75000  0.85000  0.95000  1.0000
  Ti  Ti1581    1.0  0.70000  0.90000  0.00000  1.0000
  Ti  Ti1582    1.0  0.75000  0.95000  0.05000  1.0000
  Ti  Ti1583    1.0  0.70000  0.90000  0.10000  1.0000
  Ti  Ti1584    1.0  0.75000  0.95000  0.15000  1.0000
  Ti  Ti1585    1.0  0.70000  0.90000  0.20000  1.0000
  Ti  Ti1586    1.0  0.75000  0.95000  0.25000  1.0000
  Ti  Ti1587    1.0  0.70000  0.90000  0.30000  1.0000
  Ti  Ti1588    1.0  0.75000  0.95000  0.35000  1.0000
  Ti  Ti1589    1.0  0.70000  0.90000  0.40000  1.0000
  Ti  Ti1590    1.0  0.75000  0.95000  0.45000  1.0000
  Ti  Ti1591    1.0  0.70000  0.90000  0.50000  1.0000
  Ti  Ti1592    1.0  0.75000  0.95000  0.55000  1.0000
  Ti  Ti1593    1.0  0.70000  0.90000  0.60000  1.0000
  Ti  Ti1594    1.0  0.75000  0.95000  0.65000  1.0000
  Ti  Ti1595    1.0  0.70000  0.90000  0.70000  1.0000
  Ti  Ti1596    1.0  0.75000  0.95000  0.75000  1.0000
  Ti  Ti1597    1.0  0.70000  0.90000  0.80000  1.0000
  Ti  Ti1598    1.0  0.75000  0.95000  0.85000  1.0000
  Ti  Ti1599    1.0  0.70000  0.90000  0.90000  1.0000
  Ti  Ti1600    1.0  0.75000  0.95000  0.95000  1.0000
  Ti  Ti1601    1.0  0.80000  0.00000  0.00000  1.0000
  Ti  Ti1602    1.0  0.85000  0.05000  0.05000  1.0000
  Ti  Ti1603    1.0  0.80000  0.00000  0.10000  1.0000
  Ti  Ti1604    1.0  0.85000  0.05000  0.15000  1.0000
  Ti  Ti1605    1.0  0.80000  0.00000  0.20000  1.0000
  Ti  Ti1606    1.0  0.85000  0.05000  0.25000  1.0000
  Ti  Ti1607    1.0  0.80000  0.00000  0.30000  1.0000
  Ti  Ti1608    1.0  0.85000  0.05000  0.35000  1.0000
  Ti  Ti1609    1.0  0.80000  0.00000  0.40000  1.0000
  Ti  Ti1610    1.0  0.85000  0.05000  0.45000  1.0000
  Ti  Ti1611    1.0  0.80000  0.00000  0.50000  1.0000
  Ti  Ti1612    1.0  0.85000  0.05000  0.55000  1.0000
  Ti  Ti1613    1.0  0.80000  0.00000  0.60000  1.0000
  Ti  Ti1614    1.0  0.85000  0.05000  0.65000  1.0000
  Ti  Ti1615    1.0  0.80000  0.00000  0.70000  1.0000
  Ti  Ti1616    1.0  0.85000  0.05000  0.75000  1.0000
  Ti  Ti1617    1.0  0.80000  0.00000  0.80000  1.0000
  Ti  Ti1618    1.0  0.85000  0.05000  0.85000  1.0000
  Ti  Ti1619    1.0  0.80000  0.00000  0.90000  1.0000
  Ti  Ti1620    1.0  0.85000  0.05000  0.95000  1.0000
  Ti  Ti1621    1.0  0.80000  0.10000  0.00000  1.0000
  Ti  Ti1622    1.0  0.85000  0.15000  0.05000  1.0000
  Ti  Ti1623    1.0  0.80000  0.10000  0.10000  1.0000
  Ti  Ti1624    1.0  0.85000  0.15000  0.15000  1.0000
  Ti  Ti1625    1.0  0.80000  0.10000  0.20000  1.0000
  Ti  Ti1626    1.0  0.85000  0.15000  0.25000  1.0000
  Ti  Ti1627    1.0  0.80000  0.10000  0.30000  1.0000
  Ti  Ti1628    1.0  0.85000  0.15000  0.35000  1.0000
  Ti  Ti1629    1.0  0.80000  0.10000  0.40000  1.0000
  Ti  Ti1630    1.0  0.85000  0.15000  0.45000  1.0000
  Ti  Ti1631    1.0  0.80000  0.10000  0.50000  1.0000
  Ti  Ti1632    1.0  0.85000  0.15000  0.55000  1.0000
  Ti  Ti1633    1.0  0.80000  0.10000  0.60000  1.0000
  Ti  Ti1634    1.0  0.85000  0.15000  0.65000  1.0000
  Ti  Ti1635    1.0  0.80000  0.10000  0.70000  1.0000
  Ti  Ti1636    1.0  0.85000  0.15000  0.75000  1.0000
  Ti  Ti1637    1.0  0.80000  0.10000  0.80000  1.0000
  Ti  Ti1638    1.0  0.85000  0.15000  0.85000  1.0000
  Ti  Ti1639    1.0  0.80000  0.10000  0.90000  1.0000
  Ti  Ti1640    1.0  0.85000  0.15000  0.95000  1.0000
  Ti  Ti1641    1.0  0.80000  0.20000  0.00000  1.0000
  Ti  Ti1642    1.0  0.85000  0.25000  0.05000  1.0000
  Ti  Ti1643    1.0  0.80000  0.20000  0.10000  1.0000
  Ti  Ti1644    1.0  0.85000  0.25000  0.15000  1.0000
  Ti  Ti1645    1.0  0.80000  0.20000  0.20000  1.0000
  Ti  Ti1646    1.0  0.85000  0.25000  0.25000  1.0000
  Ti  Ti1647    1.0  0.80000  0.20000  0.30000  1.0000
  Ti  Ti1648    1.0  0.85000  0.25000  0.35000  1.0000
  Ti  Ti1649    1.0  0.80000  0.20000  0.40000  1.0000
  Ti  Ti1650    1.0  0.85000  0.25000  0.45000  1.0000
  Ti  Ti1651    1.0  0.80000  0.20000  0.50000  1.0000
  Ti  Ti1652    1.0  0.85000  0.25000  0.55000  1.0000
  Ti  Ti1653    1.0  0.80000  0.20000  0.60000  1.0000
  Ti  Ti1654    1.0  0.85000  0.25000  0.65000  1.0000
  Ti  Ti1655    1.0  0.80000  0.20000  0.70000  1.0000
  Ti  Ti1656    1.0  0.85000  0.25000  0.75000  1.0000
  Ti  Ti1657    1.0  0.80000  0.20000  0.80000  1.0000
  Ti  Ti1658    1.0  0.85000  0.25000  0.85000  1.0000
  Ti  Ti1659    1.0  0.80000  0.20000  0.90000  1.0000
  Ti  Ti1660    1.0  0.85000  0.25000  0.95000  1.0000
  Ti  Ti1661    1.0  0.80000  0.30000  0.00000  1.0000
  Ti  Ti1662    1.0  0.85000  0.35000  0.05000  1.0000
  Ti  Ti1663    1.0  0.80000  0.30000  0.10000  1.0000
  Ti  Ti1664    1.0  0.85000  0.35000  0.15000  1.0000
  Ti  Ti1665    1.0  0.80000  0.30000  0.20000  1.0000
  Ti  Ti1666    1.0  0.85000  0.35000  0.25000  1.0000
  Ti  Ti1667    1.0  0.80000  0.30000  0.30000  1.0000
  Ti  Ti1668    1.0  0.85000  0.35000  0.35000  1.0000
  Ti  Ti1669    1.0  0.80000  0.30000  0.40000  1.0000
  Ti  Ti1670    1.0  0.85000  0.35000  0.45000  1.0000
  Ti  Ti1671    1.0  0.80000  0.30000  0.50000  1.0000
  Ti  Ti1672    1.0  0.85000  0.35000  0.55000  1.0000
  Ti  Ti1673    1.0  0.80000  0.30000  0.60000  1.0000
  Ti  Ti1674    1.0  0.85000  0.35000  0.65000  1.0000
  Ti  Ti1675    1.0  0.80000  0.30000  0.70000  1.0000
  Ti  Ti1676    1.0  0.85000  0.35000  0.75000  1.0000
  Ti  Ti1677    1.0  0.80000  0.30000  0.80000  1.0000
  Ti  Ti1678    1.0  0.85000  0.35000  0.85000  1.0000
  Ti  Ti1679    1.0  0.80000  0.30000  0.90000  1.0000
  Ti  Ti1680    1.0  0.85000  0.35000  0.95000  1.0000
  Ti  Ti1681    1.0  0.80000  0.40000  0.00000  1.0000
  Ti  Ti1682    1.0  0.85000  0.45000  0.05000  1.0000
  Ti  Ti1683    1.0  0.80000  0.40000  0.10000  1.0000
  Ti  Ti1684    1.0  0.85000  0.45000  0.15000  1.0000
  Ti  Ti1685    1.0  0.80000  0.40000  0.20000  1.0000
  Ti  Ti1686    1.0  0.85000  0.45000  0.25000  1.0000
  Ti  Ti1687    1.0  0.80000  0.40000  0.30000  1.0000
  Ti  Ti1688    1.0  0.85000  0.45000  0.35000  1.0000
  Ti  Ti1689    1.0  0.80000  0.40000  0.40000  1.0000
  Ti  Ti1690    1.0  0.85000  0.45000  0.45000  1.0000
  Ti  Ti1691    1.0  0.80000  0.40000  0.50000  1.0000
  Ti  Ti1692    1.0  0.85000  0.45000  0.55000  1.0000
  Ti  Ti1693    1.0  0.80000  0.40000  0.60000  1.0000
  Ti  Ti1694    1.0  0.85000  0.45000  0.65000  1.0000
  Ti  Ti1695    1.0  0.80000  0.40000  0.70000  1.0000
  Ti  Ti1696    1.0  0.85000  0.45000  0.75000  1.0000
  Ti  Ti1697    1.0  0.80000  0.40000  0.80000  1.0000
  Ti  Ti1698    1.0  0.85000  0.45000  0.85000  1.0000
  Ti  Ti1699    1.0  0.80000  0.40000  0.90000  1.0000
  Ti  Ti1700    1.0  0.85000  0.45000  0.95000  1.0000
  Ti  Ti1701    1.0  0.80000  0.50000  0.00000  1.0000
  Ti  Ti1702    1.0  0.85000  0.55000  0.05000  1.0000
  Ti  Ti1703    1.0  0.80000  0.50000  0.10000  1.0000
  Ti  Ti1704    1.0  0.85000  0.55000  0.15000  1.0000
  Ti  Ti1705    1.0  0.80000  0.50000  0.20000  1.0000
  Ti  Ti1706    1.0  0.85000  0.55000  0.25000  1.0000
  Ti  Ti1707    1.0  0.80000  0.50000  0.30000  1.0000
  Ti  Ti1708    1.0  0.85000  0.55000  0.35000  1.0000
  Ti  Ti1709    1.0  0.80000  0.50000  0.40000  1.0000
  Ti  Ti1710    1.0  0.85000  0.55000  0.45000  1.0000
  Ti  Ti1711    1.0  0.80000  0.50000  0.50000  1.0000
  Ti  Ti1712    1.0  0.85000  0.55000  0.55000  1.0000
  Ti  Ti1713    1.0  0.80000  0.50000  0.60000  1.0000
  Ti  Ti1714    1.0  0.85000  0.55000  0.65000  1.0000
  Ti  Ti1715    1.0  0.80000  0.50000  0.70000  1.0000
  Ti  Ti1716    1.0  0.85000  0.55000  0.75000  1.0000
  Ti  Ti1717    1.0  0.80000  0.50000  0.80000  1.0000
  Ti  Ti1718    1.0  0.85000  0.55000  0.85000  1.0000
  Ti  Ti1719    1.0  0.80000  0.50000  0.90000  1.0000
  Ti  Ti1720    1.0  0.85000  0.55000  0.95000  1.0000
  Ti  Ti1721    1.0  0.80000  0.60000  0.00000  1.0000
  Ti  Ti1722    1.0  0.85000  0.65000  0.05000  1.0000
  Ti  Ti1723    1.0  0.80000  0.60000  0.10000  1.0000
  Ti  Ti1724    1.0  0.85000  0.65000  0.15000  1.0000
  Ti  Ti1725    1.0  0.80000  0.60000  0.20000  1.0000
  Ti  Ti1726    1.0  0.85000  0.65000  0.25000  1.0000
  Ti  Ti1727    1.0  0.80000  0.60000  0.30000  1.0000
  Ti  Ti1728    1.0  0.85000  0.65000  0.35000  1.0000
  Ti  Ti1729    1.0  0.80000  0.60000  0.40000  1.0000
  Ti  Ti1730    1.0  0.85000  0.65000  0.45000  1.0000
  Ti  Ti1731    1.0  0.80000  0.60000  0.50000  1.0000
  Ti  Ti1732    1.0  0.85000  0.65000  0.55000  1.0000
  Ti  Ti1733    1.0  0.80000  0.60000  0.60000  1.0000
  Ti  Ti1734    1.0  0.85000  0.65000  0.65000  1.0000
  Ti  Ti1735    1.0  0.80000  0.60000  0.70000  1.0000
  Ti  Ti1736    1.0  0.85000  0.65000  0.75000  1.0000
  Ti  Ti1737    1.0  0.80000  0.60000  0.80000  1.0000
  Ti  Ti1738    1.0  0.85000  0.65000  0.85000  1.0000
  Ti  Ti1739    1.0  0.80000  0.60000  0.90000  1.0000
  Ti  Ti1740    1.0  0.85000  0.65000  0.95000  1.0000
  Ti  Ti1741    1.0  0.80000  0.70000  0.00000  1.0000
  Ti  Ti1742    1.0  0.85000  0.75000  0.05000  1.0000
  Ti  Ti1743    1.0  0.80000  0.70000  0.10000  1.0000
  Ti  Ti1744    1.0  0.85000  0.75000  0.15000  1.0000
  Ti  Ti1745    1.0  0.80000  0.70000  0.20000  1.0000
  Ti  Ti1746    1.0  0.85000  0.75000  0.25000  1.0000
  Ti  Ti1747    1.0  0.80000  0.70000  0.30000  1.0000
  Ti  Ti1748    1.0  0.85000  0.75000  0.35000  1.0000
  Ti  Ti1749    1.0  0.80000  0.70000  0.40000  1.0000
  Ti  Ti1750    1.0  0.85000  0.75000  0.45000  1.0000
  Ti  Ti1751    1.0  0.80000  0.70000  0.50000  1.0000
  Ti  Ti1752    1.0  0.85000  0.75000  0.55000  1.0000
  Ti  Ti1753    1.0  0.80000  0.70000  0.60000  1.0000
  Ti  Ti1754    1.0  0.85000  0.75000  0.65000  1.0000
  Ti  Ti1755    1.0  0.80000  0.70000  0.70000  1.0000
  Ti  Ti1756    1.0  0.85000  0.75000  0.75000  1.0000
  Ti  Ti1757    1.0  0.80000  0.70000  0.80000  1.0000
  Ti  Ti1758    1.0  0.85000  0.75000  0.85000  1.0000
  Ti  Ti1759    1.0  0.80000  0.70000  0.90000  1.0000
  Ti  Ti1760    1.0  0.85000  0.75000  0.95000  1.0000
  Ti  Ti1761    1.0  0.80000  0.80000  0.00000  1.0000
  Ti  Ti1762    1.0  0.85000  0.85000  0.05000  1.0000
  Ti  Ti1763    1.0  0.80000  0.80000  0.10000  1.0000
  Ti  Ti1764    1.0  0.85000  0.85000  0.15000  1.0000
  Ti  Ti1765    1.0  0.80000  0.80000  0.20000  1.0000
  Ti  Ti1766    1.0  0.85000  0.85000  0.25000  1.0000
  Ti  Ti1767    1.0  0.80000  0.80000  0.30000  1.0000
  Ti  Ti1768    1.0  0.85000  0.85000  0.35000  1.0000
  Ti  Ti1769    1.0  0.80000  0.80000  0.40000  1.0000
  Ti  Ti1770    1.0  0.85000  0.85000  0.45000  1.0000
  Ti  Ti1771    1.0  0.80000  0.80000  0.50000  1.0000
  Ti  Ti1772    1.0  0.85000  0.85000  0.55000  1.0000
  Ti  Ti1773    1.0  0.80000  0.80000  0.60000  1.0000
  Ti  Ti1774    1.0  0.85000  0.85000  0.65000  1.0000
  Ti  Ti1775    1.0  0.80000  0.80000  0.70000  1.0000
  Ti  Ti1776    1.0  0.85000  0.85000  0.75000  1.0000
  Ti  Ti1777    1.0  0.80000  0.80000  0.80000  1.0000
  Ti  Ti1778    1.0  0.85000  0.85000  0.85000  1.0000
  Ti  Ti1779    1.0  0.80000  0.80000  0.90000  1.0000
  Ti  Ti1780    1.0  0.85000  0.85000  0.95000  1.0000
  Ti  Ti1781    1.0  0.80000  0.90000  0.00000  1.0000
  Ti  Ti1782    1.0  0.85000  0.95000  0.05000  1.0000
  Ti  Ti1783    1.0  0.80000  0.90000  0.10000  1.0000
  Ti  Ti1784    1.0  0.85000  0.95000  0.15000  1.0000
  Ti  Ti1785    1.0  0.80000  0.90000  0.20000  1.0000
  Ti  Ti1786    1.0  0.85000  0.95000  0.25000  1.0000
  Ti  Ti1787    1.0  0.80000  0.90000  0.30000  1.0000
  Ti  Ti1788    1.0  0.85000  0.95000  0.35000  1.0000
  Ti  Ti1789    1.0  0.80000  0.90000  0.40000  1.0000
  Ti  Ti1790    1.0  0.85000  0.95000  0.45000  1.0000
  Ti  Ti1791    1.0  0.80000  0.90000  0.50000  1.0000
  Ti  Ti1792    1.0  0.85000  0.95000  0.55000  1.0000
  Ti  Ti1793    1.0  0.80000  0.90000  0.60000  1.0000
  Ti  Ti1794    1.0  0.85000  0.95000  0.65000  1.0000
  Ti  Ti1795    1.0  0.80000  0.90000  0.70000  1.0000
  Ti  Ti1796    1.0  0.85000  0.95000  0.75000  1.0000
  Ti  Ti1797    1.0  0.80000  0.90000  0.80000  1.0000
  Ti  Ti1798    1.0  0.85000  0.95000  0.85000  1.0000
  Ti  Ti1799    1.0  0.80000  0.90000  0.90000  1.0000
  Ti  Ti1800    1.0  0.85000  0.95000  0.95000  1.0000
  Ti  Ti1801    1.0  0.90000  0.00000  0.00000  1.0000
  Ti  Ti1802    1.0  0.95000  0.05000  0.05000  1.0000
  Ti  Ti1803    1.0  0.90000  0.00000  0.10000  1.0000
  Ti  Ti1804    1.0  0.95000  0.05000  0.15000  1.0000
  Ti  Ti1805    1.0  0.90000  0.00000  0.20000  1.0000
  Ti  Ti1806    1.0  0.95000  0.05000  0.25000  1.0000
  Ti  Ti1807    1.0  0.90000  0.00000  0.30000  1.0000
  Ti  Ti1808    1.0  0.95000  0.05000  0.35000  1.0000
  Ti  Ti1809    1.0  0.90000  0.00000  0.40000  1.0000
  Ti  Ti1810    1.0  0.95000  0.05000  0.45000  1.0000
  Ti  Ti1811    1.0  0.90000  0.00000  0.50000  1.0000
  Ti  Ti1812    1.0  0.95000  0.05000  0.55000  1.0000
  Ti  Ti1813    1.0  0.90000  0.00000  0.60000  1.0000
  Ti  Ti1814    1.0  0.95000  0.05000  0.65000  1.0000
  Ti  Ti1815    1.0  0.90000  0.00000  0.70000  1.0000
  Ti  Ti1816    1.0  0.95000  0.05000  0.75000  1.0000
  Ti  Ti1817    1.0  0.90000  0.00000  0.80000  1.0000
  Ti  Ti1818    1.0  0.95000  0.05000  0.85000  1.0000
  Ti  Ti1819    1.0  0.90000  0.00000  0.90000  1.0000
  Ti  Ti1820    1.0  0.95000  0.05000  0.95000  1.0000
  Ti  Ti1821    1.0  0.90000  0.10000  0.00000  1.0000
  Ti  Ti1822    1.0  0.95000  0.15000  0.05000  1.0000
  Ti  Ti1823    1.0  0.90000  0.10000  0.10000  1.0000
  Ti  Ti1824    1.0  0.95000  0.15000  0.15000  1.0000
  Ti  Ti1825    1.0  0.90000  0.10000  0.20000  1.0000
  Ti  Ti1826    1.0  0.95000  0.15000  0.25000  1.0000
  Ti  Ti1827    1.0  0.90000  0.10000  0.30000  1.0000
  Ti  Ti1828    1.0  0.95000  0.15000  0.35000  1.0000
  Ti  Ti1829    1.0  0.90000  0.10000  0.40000  1.0000
  Ti  Ti1830    1.0  0.95000  0.15000  0.45000  1.0000
  Ti  Ti1831    1.0  0.90000  0.10000  0.50000  1.0000
  Ti  Ti1832    1.0  0.95000  0.15000  0.55000  1.0000
  Ti  Ti1833    1.0  0.90000  0.10000  0.60000  1.0000
  Ti  Ti1834    1.0  0.95000  0.15000  0.65000  1.0000
  Ti  Ti1835    1.0  0.90000  0.10000  0.70000  1.0000
  Ti  Ti1836    1.0  0.95000  0.15000  0.75000  1.0000
  Ti  Ti1837    1.0  0.90000  0.10000  0.80000  1.0000
  Ti  Ti1838    1.0  0.95000  0.15000  0.85000  1.0000
  Ti  Ti1839    1.0  0.90000  0.10000  0.90000  1.0000
  Ti  Ti1840    1.0  0.95000  0.15000  0.95000  1.0000
  Ti  Ti1841    1.0  0.90000  0.20000  0.00000  1.0000
  Ti  Ti1842    1.0  0.95000  0.25000  0.05000  1.0000
  Ti  Ti1843    1.0  0.90000  0.20000  0.10000  1.0000
  Ti  Ti1844    1.0  0.95000  0.25000  0.15000  1.0000
  Ti  Ti1845    1.0  0.90000  0.20000  0.20000  1.0000
  Ti  Ti1846    1.0  0.95000  0.25000  0.25000  1.0000
  Ti  Ti1847    1.0  0.90000  0.20000  0.30000  1.0000
  Ti  Ti1848    1.0  0.95000  0.25000  0.35000  1.0000
  Ti  Ti1849    1.0  0.90000  0.20000  0.40000  1.0000
  Ti  Ti1850    1.0  0.95000  0.25000  0.45000  1.0000
  Ti  Ti1851    1.0  0.90000  0.20000  0.50000  1.0000
  Ti  Ti1852    1.0  0.95000  0.25000  0.55000  1.0000
  Ti  Ti1853    1.0  0.90000  0.20000  0.60000  1.0000
  Ti  Ti1854    1.0  0.95000  0.25000  0.65000  1.0000
  Ti  Ti1855    1.0  0.90000  0.20000  0.70000  1.0000
  Ti  Ti1856    1.0  0.95000  0.25000  0.75000  1.0000
  Ti  Ti1857    1.0  0.90000  0.20000  0.80000  1.0000
  Ti  Ti1858    1.0  0.95000  0.25000  0.85000  1.0000
  Ti  Ti1859    1.0  0.90000  0.20000  0.90000  1.0000
  Ti  Ti1860    1.0  0.95000  0.25000  0.95000  1.0000
  Ti  Ti1861    1.0  0.90000  0.30000  0.00000  1.0000
  Ti  Ti1862    1.0  0.95000  0.35000  0.05000  1.0000
  Ti  Ti1863    1.0  0.90000  0.30000  0.10000  1.0000
  Ti  Ti1864    1.0  0.95000  0.35000  0.15000  1.0000
  Ti  Ti1865    1.0  0.90000  0.30000  0.20000  1.0000
  Ti  Ti1866    1.0  0.95000  0.35000  0.25000  1.0000
  Ti  Ti1867    1.0  0.90000  0.30000  0.30000  1.0000
  Ti  Ti1868    1.0  0.95000  0.35000  0.35000  1.0000
  Ti  Ti1869    1.0  0.90000  0.30000  0.40000  1.0000
  Ti  Ti1870    1.0  0.95000  0.35000  0.45000  1.0000
  Ti  Ti1871    1.0  0.90000  0.30000  0.50000  1.0000
  Ti  Ti1872    1.0  0.95000  0.35000  0.55000  1.0000
  Ti  Ti1873    1.0  0.90000  0.30000  0.60000  1.0000
  Ti  Ti1874    1.0  0.95000  0.35000  0.65000  1.0000
  Ti  Ti1875    1.0  0.90000  0.30000  0.70000  1.0000
  Ti  Ti1876    1.0  0.95000  0.35000  0.75000  1.0000
  Ti  Ti1877    1.0  0.90000  0.30000  0.80000  1.0000
  Ti  Ti1878    1.0  0.95000  0.35000  0.85000  1.0000
  Ti  Ti1879    1.0  0.90000  0.30000  0.90000  1.0000
  Ti  Ti1880    1.0  0.95000  0.35000  0.95000  1.0000
  Ti  Ti1881    1.0  0.90000  0.40000  0.00000  1.0000
  Ti  Ti1882    1.0  0.95000  0.45000  0.05000  1.0000
  Ti  Ti1883    1.0  0.90000  0.40000  0.10000  1.0000
  Ti  Ti1884    1.0  0.95000  0.45000  0.15000  1.0000
  Ti  Ti1885    1.0  0.90000  0.40000  0.20000  1.0000
  Ti  Ti1886    1.0  0.95000  0.45000  0.25000  1.0000
  Ti  Ti1887    1.0  0.90000  0.40000  0.30000  1.0000
  Ti  Ti1888    1.0  0.95000  0.45000  0.35000  1.0000
  Ti  Ti1889    1.0  0.90000  0.40000  0.40000  1.0000
  Ti  Ti1890    1.0  0.95000  0.45000  0.45000  1.0000
  Ti  Ti1891    1.0  0.90000  0.40000  0.50000  1.0000
  Ti  Ti1892    1.0  0.95000  0.45000  0.55000  1.0000
  Ti  Ti1893    1.0  0.90000  0.40000  0.60000  1.0000
  Ti  Ti1894    1.0  0.95000  0.45000  0.65000  1.0000
  Ti  Ti1895    1.0  0.90000  0.40000  0.70000  1.0000
  Ti  Ti1896    1.0  0.95000  0.45000  0.75000  1.0000
  Ti  Ti1897    1.0  0.90000  0.40000  0.80000  1.0000
  Ti  Ti1898    1.0  0.95000  0.45000  0.85000  1.0000
  Ti  Ti1899    1.0  0.90000  0.40000  0.90000  1.0000
  Ti  Ti1900    1.0  0.95000  0.45000  0.95000  1.0000
  Ti  Ti1901    1.0  0.90000  0.50000  0.00000  1.0000
  Ti  Ti1902    1.0  0.95000  0.55000  0.05000  1.0000
  Ti  Ti1903    1.0  0.90000  0.50000  0.10000  1.0000
  Ti  Ti1904    1.0  0.95000  0.55000  0.15000  1.0000
  Ti  Ti1905    1.0  0.90000  0.50000  0.20000  1.0000
  Ti  Ti1906    1.0  0.95000  0.55000  0.25000  1.0000
  Ti  Ti1907    1.0  0.90000  0.50000  0.30000  1.0000
  Ti  Ti1908    1.0  0.95000  0.55000  0.35000  1.0000
  Ti  Ti1909    1.0  0.90000  0.50000  0.40000  1.0000
  Ti  Ti1910    1.0  0.95000  0.55000  0.45000  1.0000
  Ti  Ti1911    1.0  0.90000  0.50000  0.50000  1.0000
  Ti  Ti1912    1.0  0.95000  0.55000  0.55000  1.0000
  Ti  Ti1913    1.0  0.90000  0.50000  0.60000  1.0000
  Ti  Ti1914    1.0  0.95000  0.55000  0.65000  1.0000
  Ti  Ti1915    1.0  0.90000  0.50000  0.70000  1.0000
  Ti  Ti1916    1.0  0.95000  0.55000  0.75000  1.0000
  Ti  Ti1917    1.0  0.90000  0.50000  0.80000  1.0000
  Ti  Ti1918    1.0  0.95000  0.55000  0.85000  1.0000
  Ti  Ti1919    1.0  0.90000  0.50000  0.90000  1.0000
  Ti  Ti1920    1.0  0.95000  0.55000  0.95000  1.0000
  Ti  Ti1921    1.0  0.90000  0.60000  0.00000  1.0000
  Ti  Ti1922    1.0  0.95000  0.65000  0.05000  1.0000
  Ti  Ti1923    1.0  0.90000  0.60000  0.10000  1.0000
  Ti  Ti1924    1.0  0.95000  0.65000  0.15000  1.0000
  Ti  Ti1925    1.0  0.90000  0.60000  0.20000  1.0000
  Ti  Ti1926    1.0  0.95000  0.65000  0.25000  1.0000
  Ti  Ti1927    1.0  0.90000  0.60000  0.30000  1.0000
  Ti  Ti1928    1.0  0.95000  0.65000  0.35000  1.0000
  Ti  Ti1929    1.0  0.90000  0.60000  0.40000  1.0000
  Ti  Ti1930    1.0  0.95000  0.65000  0.45000  1.0000
  Ti  Ti1931    1.0  0.90000  0.60000  0.50000  1.0000
  Ti  Ti1932    1.0  0.95000  0.65000  0.55000  1.0000
  Ti  Ti1933    1.0  0.90000  0.60000  0.60000  1.0000
  Ti  Ti1934    1.0  0.95000  0.65000  0.65000  1.0000
  Ti  Ti1935    1.0  0.90000  0.60000  0.70000  1.0000
  Ti  Ti1936    1.0  0.95000  0.65000  0.75000  1.0000
  Ti  Ti1937    1.0  0.90000  0.60000  0.80000  1.0000
  Ti  Ti1938    1.0  0.95000  0.65000  0.85000  1.0000
  Ti  Ti1939    1.0  0.90000  0.60000  0.90000  1.0000
  Ti  Ti1940    1.0  0.95000  0.65000  0.95000  1.0000
  Ti  Ti1941    1.0  0.90000  0.70000  0.00000  1.0000
  Ti  Ti1942    1.0  0.95000  0.75000  0.05000  1.0000
  Ti  Ti1943    1.0  0.90000  0.70000  0.10000  1.0000
  Ti  Ti1944    1.0  0.95000  0.75000  0.15000  1.0000
  Ti  Ti1945    1.0  0.90000  0.70000  0.20000  1.0000
  Ti  Ti1946    1.0  0.95000  0.75000  0.25000  1.0000
  Ti  Ti1947    1.0  0.90000  0.70000  0.30000  1.0000
  Ti  Ti1948    1.0  0.95000  0.75000  0.35000  1.0000
  Ti  Ti1949    1.0  0.90000  0.70000  0.40000  1.0000
  Ti  Ti1950    1.0  0.95000  0.75000  0.45000  1.0000
  Ti  Ti1951    1.0  0.90000  0.70000  0.50000  1.0000
  Ti  Ti1952    1.0  0.95000  0.75000  0.55000  1.0000
  Ti  Ti1953    1.0  0.90000  0.70000  0.60000  1.0000
  Ti  Ti1954    1.0  0.95000  0.75000  0.65000  1.0000
  Ti  Ti1955    1.0  0.90000  0.70000  0.70000  1.0000
  Ti  Ti1956    1.0  0.95000  0.75000  0.75000  1.0000
  Ti  Ti1957    1.0  0.90000  0.70000  0.80000  1.0000
  Ti  Ti1958    1.0  0.95000  0.75000  0.85000  1.0000
  Ti  Ti1959    1.0  0.90000  0.70000  0.90000  1.0000
  Ti  Ti1960    1.0  0.95000  0.75000  0.95000  1.0000
  Ti  Ti1961    1.0  0.90000  0.80000  0.00000  1.0000
  Ti  Ti1962    1.0  0.95000  0.85000  0.05000  1.0000
  Ti  Ti1963    1.0  0.90000  0.80000  0.10000  1.0000
  Ti  Ti1964    1.0  0.95000  0.85000  0.15000  1.0000
  Ti  Ti1965    1.0  0.90000  0.80000  0.20000  1.0000
  Ti  Ti1966    1.0  0.95000  0.85000  0.25000  1.0000
  Ti  Ti1967    1.0  0.90000  0.80000  0.30000  1.0000
  Ti  Ti1968    1.0  0.95000  0.85000  0.35000  1.0000
  Ti  Ti1969    1.0  0.90000  0.80000  0.40000  1.0000
  Ti  Ti1970    1.0  0.95000  0.85000  0.45000  1.0000
  Ti  Ti1971    1.0  0.90000  0.80000  0.50000  1.0000
  Ti  Ti1972    1.0  0.95000  0.85000  0.55000  1.0000
  Ti  Ti1973    1.0  0.90000  0.80000  0.60000  1.0000
  Ti  Ti1974    1.0  0.95000  0.85000  0.65000  1.0000
  Ti  Ti1975    1.0  0.90000  0.80000  0.70000  1.0000
  Ti  Ti1976    1.0  0.95000  0.85000  0.75000  1.0000
  Ti  Ti1977    1.0  0.90000  0.80000  0.80000  1.0000
  Ti  Ti1978    1.0  0.95000  0.85000  0.85000  1.0000
  Ti  Ti1979    1.0  0.90000  0.80000  0.90000  1.0000
  Ti  Ti1980    1.0  0.95000  0.85000  0.95000  1.0000
  Ti  Ti1981    1.0  0.90000  0.90000  0.00000  1.0000
  Ti  Ti1982    1.0  0.95000  0.95000  0.05000  1.0000
  Ti  Ti1983    1.0  0.90000  0.90000  0.10000  1.0000
  Ti  Ti1984    1.0  0.95000  0.95000  0.15000  1.0000
  Ti  Ti1985    1.0  0.90000  0.90000  0.20000  1.0000
  Ti  Ti1986    1.0  0.95000  0.95000  0.25000  1.0000
  Ti  Ti1987    1.0  0.90000  0.90000  0.30000  1.0000
  Ti  Ti1988    1.0  0.95000  0.95000  0.35000  1.0000
  Ti  Ti1989    1.0  0.90000  0.90000  0.40000  1.0000
  Ti  Ti1990    1.0  0.95000  0.95000  0.45000  1.0000
  Ti  Ti1991    1.0  0.90000  0.90000  0.50000  1.0000
  Ti  Ti1992    1.0  0.95000  0.95000  0.55000  1.0000
  Ti  Ti1993    1.0  0.90000  0.90000  0.60000  1.0000
  Ti  Ti1994    1.0  0.95000  0.95000  0.65000  1.0000
  Ti  Ti1995    1.0  0.90000  0.90000  0.70000  1.0000
  Ti  Ti1996    1.0  0.95000  0.95000  0.75000  1.0000
  Ti  Ti1997    1.0  0.90000  0.90000  0.80000  1.0000
  Ti  Ti1998    1.0  0.95000  0.95000  0.85000  1.0000
  Ti  Ti1999    1.0  0.90000  0.90000  0.90000  1.0000
  Ti  Ti2000    1.0  0.95000  0.95000  0.95000  1.0000
